{
   "completed_at" : "20200413T211633Z",
   "completed_status" : "Success",
   "current_step" : 12,
   "description" : "Restaurant 1",
   "eplusout_err" : "Program Version,EnergyPlus, Version 9.2.0-921312fa1d, YMD=2020.04.13 15:04,\n   ************* Beginning Zone Sizing Calculations\n   ** Warning ** ProcessScheduleInput: Schedule:Day:Interval=\"ECONOMIZER MAX OA FRACTION 70 PCT DEFAULT\", Blank Schedule Type Limits Name input -- will not be validated.\n   ** Warning ** ProcessScheduleInput: Schedule:Day:Interval=\"SCHEDULE DAY 1\", Blank Schedule Type Limits Name input -- will not be validated.\n   ** Warning ** ProcessScheduleInput: Schedule:Day:Interval=\"SCHEDULE DAY 2\", Blank Schedule Type Limits Name input -- will not be validated.\n   ** Warning ** ProcessScheduleInput: Schedule:Year=\"ECONOMIZER MAX OA FRACTION 70 PCT\", Blank Schedule Type Limits Name input -- will not be validated.\n   ** Warning ** ProcessScheduleInput: Schedule:Constant=\"ALWAYS OFF DISCRETE\", Blank Schedule Type Limits Name input -- will not be validated.\n   ** Warning ** ProcessScheduleInput: Schedule:Constant=\"ALWAYS ON CONTINUOUS\", Blank Schedule Type Limits Name input -- will not be validated.\n   ** Warning ** CheckUsedConstructions: There are 13 nominally unused constructions in input.\n   **   ~~~   ** For explicit details on each unused construction, use Output:Diagnostics,DisplayExtraWarnings;\n   ** Warning ** GetDaylightingControls: Fraction of Zone controlled by the Daylighting reference points is < 1.0.\n   **   ~~~   ** ..discovered in \"Daylighting:Controls\" for Zone=\"BUILDING STORY 1 THERMALZONE\", only 0.48 of the zone is controlled.\n   ************* Beginning System Sizing Calculations\n   ************* Beginning Plant Sizing Calculations\n   ** Warning ** Controller:MechanicalVentilation=\"CONTROLLER MECHANICAL VENTILATION 1\", Zone OA/person rate\n   **   ~~~   ** For Zone=\"BUILDING STORY 1 THERMALZONE\".\n   **   ~~~   ** Zone outside air per person rate not set in Design Specification Outdoor Air Object=\"BLENDED OA\".\n   ** Warning ** The Standard Ratings is calculated for Coil:Cooling:DX:SingleSpeed = BUILDING STORY 1 THERMALZONE PSZ-AC 1SPD DX AC CLG COIL 1282KBTU/HR 9.5EER but not at the AHRI test condition due to curve out of bound.\n   **   ~~~   **  Review the Standard Ratings calculations in the Engineering Reference for this coil type. Also, use Output:Diagnostics, DisplayExtraWarnings for further guidance.\n   ** Warning ** Check input. Pump nominal power or motor efficiency is set to 0, for pump=BOOSTER WATER LOOP PUMP\n   ** Warning ** SizePlantLoop: Calculated Plant Sizing Design Volume Flow Rate=[0.00] is too small. Set to 0.0\n   **   ~~~   ** ..occurs for PlantLoop=HOT WATER LOOP\n   ** Warning ** SizePump: Calculated Pump Nominal Volume Flow Rate=[0.00] is too small. Set to 0.0\n   **   ~~~   ** ..occurs for Pump=HOT WATER LOOP PUMP\n   ** Warning ** Check input. Pump nominal power or motor efficiency is set to 0, for pump=HOT WATER LOOP PUMP\n   ** Warning ** Check input. Pump nominal flow rate is set or calculated = 0, for pump=HOT WATER LOOP PUMP\n   ** Warning ** Missing temperature setpoint for LeavingSetpointModulated mode Boiler named BOILER\n   **   ~~~   **   A temperature setpoint is needed at the outlet node of a boiler in variable flow mode\n   **   ~~~   **   use a Setpoint Manager to establish a setpoint at the boiler outlet node \n   **   ~~~   **   or use an EMS actuator to establish a setpoint at the boiler outlet node \n   **   ~~~   **   The overall loop setpoint will be assumed for Boiler. The simulation continues ... \n   ** Warning ** Output:Meter: invalid Key Name=\"HEATING:ADDITIONALFUEL\" - not found.\n   ** Warning ** Output:Meter: invalid Key Name=\"HEATING:DISTRICTCOOLING\" - not found.\n   ** Warning ** Output:Meter: invalid Key Name=\"HEATING:DISTRICTHEATING\" - not found.\n   ** Warning ** Output:Meter: invalid Key Name=\"HEATING:WATER\" - not found.\n   ** Warning ** Output:Meter: invalid Key Name=\"COOLING:GAS\" - not found.\n   ** Warning ** Output:Meter: invalid Key Name=\"COOLING:ADDITIONALFUEL\" - not found.\n   ** Warning ** Output:Meter: invalid Key Name=\"COOLING:DISTRICTCOOLING\" - not found.\n   ** Warning ** Output:Meter: invalid Key Name=\"COOLING:DISTRICTHEATING\" - not found.\n   ** Warning ** Output:Meter: invalid Key Name=\"COOLING:WATER\" - not found.\n   ** Warning ** Output:Meter: invalid Key Name=\"INTERIORLIGHTS:GAS\" - not found.\n   ** Warning ** Output:Meter: invalid Key Name=\"INTERIORLIGHTS:ADDITIONALFUEL\" - not found.\n   ** Warning ** Output:Meter: invalid Key Name=\"INTERIORLIGHTS:DISTRICTCOOLING\" - not found.\n   ** Warning ** Output:Meter: invalid Key Name=\"INTERIORLIGHTS:DISTRICTHEATING\" - not found.\n   ** Warning ** Output:Meter: invalid Key Name=\"INTERIORLIGHTS:WATER\" - not found.\n   ** Warning ** Output:Meter: invalid Key Name=\"EXTERIORLIGHTS:GAS\" - not found.\n   ** Warning ** Output:Meter: invalid Key Name=\"EXTERIORLIGHTS:ADDITIONALFUEL\" - not found.\n   ** Warning ** Output:Meter: invalid Key Name=\"EXTERIORLIGHTS:DISTRICTCOOLING\" - not found.\n   ** Warning ** Output:Meter: invalid Key Name=\"EXTERIORLIGHTS:DISTRICTHEATING\" - not found.\n   ** Warning ** Output:Meter: invalid Key Name=\"EXTERIORLIGHTS:WATER\" - not found.\n   ** Warning ** Output:Meter: invalid Key Name=\"INTERIOREQUIPMENT:ADDITIONALFUEL\" - not found.\n   ** Warning ** Output:Meter: invalid Key Name=\"INTERIOREQUIPMENT:DISTRICTCOOLING\" - not found.\n   ** Warning ** Output:Meter: invalid Key Name=\"INTERIOREQUIPMENT:DISTRICTHEATING\" - not found.\n   ** Warning ** Output:Meter: invalid Key Name=\"INTERIOREQUIPMENT:WATER\" - not found.\n   ** Warning ** Output:Meter: invalid Key Name=\"EXTERIOREQUIPMENT:ELECTRICITY\" - not found.\n   ** Warning ** Output:Meter: invalid Key Name=\"EXTERIOREQUIPMENT:GAS\" - not found.\n   ** Warning ** Output:Meter: invalid Key Name=\"EXTERIOREQUIPMENT:ADDITIONALFUEL\" - not found.\n   ** Warning ** Output:Meter: invalid Key Name=\"EXTERIOREQUIPMENT:DISTRICTCOOLING\" - not found.\n   ** Warning ** Output:Meter: invalid Key Name=\"EXTERIOREQUIPMENT:DISTRICTHEATING\" - not found.\n   ** Warning ** Output:Meter: invalid Key Name=\"EXTERIOREQUIPMENT:WATER\" - not found.\n   ** Warning ** Output:Meter: invalid Key Name=\"FANS:GAS\" - not found.\n   ** Warning ** Output:Meter: invalid Key Name=\"FANS:ADDITIONALFUEL\" - not found.\n   ** Warning ** Output:Meter: invalid Key Name=\"FANS:DISTRICTCOOLING\" - not found.\n   ** Warning ** Output:Meter: invalid Key Name=\"FANS:DISTRICTHEATING\" - not found.\n   ** Warning ** Output:Meter: invalid Key Name=\"FANS:WATER\" - not found.\n   ** Warning ** Output:Meter: invalid Key Name=\"PUMPS:GAS\" - not found.\n   ** Warning ** Output:Meter: invalid Key Name=\"PUMPS:ADDITIONALFUEL\" - not found.\n   ** Warning ** Output:Meter: invalid Key Name=\"PUMPS:DISTRICTCOOLING\" - not found.\n   ** Warning ** Output:Meter: invalid Key Name=\"PUMPS:DISTRICTHEATING\" - not found.\n   ** Warning ** Output:Meter: invalid Key Name=\"PUMPS:WATER\" - not found.\n   ** Warning ** Output:Meter: invalid Key Name=\"HEATREJECTION:ELECTRICITY\" - not found.\n   ** Warning ** Output:Meter: invalid Key Name=\"HEATREJECTION:GAS\" - not found.\n   ** Warning ** Output:Meter: invalid Key Name=\"HEATREJECTION:ADDITIONALFUEL\" - not found.\n   ** Warning ** Output:Meter: invalid Key Name=\"HEATREJECTION:DISTRICTCOOLING\" - not found.\n   ** Warning ** Output:Meter: invalid Key Name=\"HEATREJECTION:DISTRICTHEATING\" - not found.\n   ** Warning ** Output:Meter: invalid Key Name=\"HEATREJECTION:WATER\" - not found.\n   ** Warning ** Output:Meter: invalid Key Name=\"HUMIDIFIER:ELECTRICITY\" - not found.\n   ** Warning ** Output:Meter: invalid Key Name=\"HUMIDIFIER:GAS\" - not found.\n   ** Warning ** Output:Meter: invalid Key Name=\"HUMIDIFIER:ADDITIONALFUEL\" - not found.\n   ** Warning ** Output:Meter: invalid Key Name=\"HUMIDIFIER:DISTRICTCOOLING\" - not found.\n   ** Warning ** Output:Meter: invalid Key Name=\"HUMIDIFIER:DISTRICTHEATING\" - not found.\n   ** Warning ** Output:Meter: invalid Key Name=\"HUMIDIFIER:WATER\" - not found.\n   ** Warning ** Output:Meter: invalid Key Name=\"HEATRECOVERY:ELECTRICITY\" - not found.\n   ** Warning ** Output:Meter: invalid Key Name=\"HEATRECOVERY:GAS\" - not found.\n   ** Warning ** Output:Meter: invalid Key Name=\"HEATRECOVERY:ADDITIONALFUEL\" - not found.\n   ** Warning ** Output:Meter: invalid Key Name=\"HEATRECOVERY:DISTRICTCOOLING\" - not found.\n   ** Warning ** Output:Meter: invalid Key Name=\"HEATRECOVERY:DISTRICTHEATING\" - not found.\n   ** Warning ** Output:Meter: invalid Key Name=\"HEATRECOVERY:WATER\" - not found.\n   ** Warning ** Output:Meter: invalid Key Name=\"WATERSYSTEMS:ADDITIONALFUEL\" - not found.\n   ** Warning ** Output:Meter: invalid Key Name=\"WATERSYSTEMS:DISTRICTCOOLING\" - not found.\n   ** Warning ** Output:Meter: invalid Key Name=\"WATERSYSTEMS:DISTRICTHEATING\" - not found.\n   ** Warning ** Output:Meter: invalid Key Name=\"REFRIGERATION:ELECTRICITY\" - not found.\n   ** Warning ** Output:Meter: invalid Key Name=\"REFRIGERATION:GAS\" - not found.\n   ** Warning ** Output:Meter: invalid Key Name=\"REFRIGERATION:ADDITIONALFUEL\" - not found.\n   ** Warning ** Output:Meter: invalid Key Name=\"REFRIGERATION:DISTRICTCOOLING\" - not found.\n   ** Warning ** Output:Meter: invalid Key Name=\"REFRIGERATION:DISTRICTHEATING\" - not found.\n   ** Warning ** Output:Meter: invalid Key Name=\"REFRIGERATION:WATER\" - not found.\n   ** Warning ** Output:Meter: invalid Key Name=\"GENERATORS:ELECTRICITY\" - not found.\n   ** Warning ** Output:Meter: invalid Key Name=\"GENERATORS:GAS\" - not found.\n   ** Warning ** Output:Meter: invalid Key Name=\"GENERATORS:ADDITIONALFUEL\" - not found.\n   ** Warning ** Output:Meter: invalid Key Name=\"GENERATORS:DISTRICTCOOLING\" - not found.\n   ** Warning ** Output:Meter: invalid Key Name=\"GENERATORS:DISTRICTHEATING\" - not found.\n   ** Warning ** Output:Meter: invalid Key Name=\"GENERATORS:WATER\" - not found.\n   ** Warning ** Output:Meter: invalid Key Name=\"ADDITIONALFUEL:FACILITY\" - not found.\n   ** Warning ** Output:Meter: invalid Key Name=\"DISTRICTCOOLING:FACILITY\" - not found.\n   ** Warning ** Output:Meter: invalid Key Name=\"DISTRICTHEATING:FACILITY\" - not found.\n   ** Warning ** Output:Meter:MeterFileOnly requested for \"Electricity:Facility\" (TimeStep), already on \"Output:Meter\". Will report to both eplusout.eso and eplusout.mtr\n   ** Warning ** Output:Meter:MeterFileOnly: invalid Key Name=\"ELECTRICITYPRODUCED:FACILITY\" - not found.\n   ** Warning ** Output:Meter:MeterFileOnly requested for \"Gas:Facility\" (TimeStep), already on \"Output:Meter\". Will report to both eplusout.eso and eplusout.mtr\n   ** Warning ** Output:Meter:MeterFileOnly: invalid Key Name=\"DISTRICTCOOLING:FACILITY\" - not found.\n   ** Warning ** Output:Meter:MeterFileOnly: invalid Key Name=\"DISTRICTHEATING:FACILITY\" - not found.\n   ************* Testing Individual Branch Integrity\n   ************* All Branches passed integrity testing\n   ************* Testing Individual Supply Air Path Integrity\n   ************* All Supply Air Paths passed integrity testing\n   ************* Testing Individual Return Air Path Integrity\n   ************* All Return Air Paths passed integrity testing\n   ************* No node connection errors were found.\n   ************* Beginning Simulation\n   ** Warning ** Processing Monthly Tabular Reports: Variable names not valid for this simulation\n   **   ~~~   ** ...use Output:Diagnostics,DisplayExtraWarnings; to show more details on individual variables.\n   ** Warning ** SimHVAC: Maximum iterations (20) exceeded for all HVAC loops, at RUN PERIOD 1, 01/11 21:15 - 21:22\n   **   ~~~   ** The solution for one or more of the Air Loop HVAC systems did not appear to converge\n   **   ~~~   ** ...use Output:Diagnostics,DisplayExtraWarnings; to show more details on each max iteration exceeded.\n   ** Warning ** CalcDoe2DXCoil: Coil:Cooling:DX:SingleSpeed \"BUILDING STORY 1 THERMALZONE PSZ-AC 1SPD DX AC CLG COIL 1282KBTU/HR 9.5EER\" - Full load outlet air dry-bulb temperature < 2C. This indicates the possibility of coil frost/freeze. Outlet temperature = 1.26 C.\n   **   ~~~   **  ...Occurrence info = RUN PERIOD 1, 01/14 12:08 - 12:15\n   **   ~~~   ** ... Possible reasons for low outlet air dry-bulb temperatures are: This DX coil\n   **   ~~~   **    1) may have a low inlet air dry-bulb temperature. Inlet air temperature = 15.778 C.\n   **   ~~~   **    2) may have a low air flow rate per watt of cooling capacity. Check inputs.\n   **   ~~~   **    3) is used as part of a HX assisted cooling coil which uses a high sensible effectiveness. Check inputs.\n   ** Warning ** CalcDoe2DXCoil: Coil:Cooling:DX:SingleSpeed \"BUILDING STORY 1 THERMALZONE PSZ-AC 1SPD DX AC CLG COIL 1282KBTU/HR 9.5EER\" - Air-cooled condenser inlet dry-bulb temperature below 0 C. Outdoor dry-bulb temperature = -11.70\n   **   ~~~   **  ... Occurrence info = RUN PERIOD 1, 01/24 04:05 - 04:10\n   **   ~~~   ** ... Operation at low ambient temperatures may require special performance curves.\n   ** Warning ** SimHVAC: Maximum iterations (20) exceeded for all HVAC loops, at RUN PERIOD 1, 04/12 21:15 - 21:22\n   **   ~~~   ** The solution for one or more of the Air Loop HVAC systems did not appear to converge\n   ** Warning ** SimHVAC: Maximum iterations (20) exceeded for all HVAC loops, at RUN PERIOD 1, 04/14 13:00 - 13:15\n   **   ~~~   ** The solution for one or more of the Air Loop HVAC systems did not appear to converge\n   ** Warning ** SimHVAC: Maximum iterations (20) exceeded for all HVAC loops, at RUN PERIOD 1, 10/16 20:15 - 20:22\n   **   ~~~   ** The solution for one or more of the Air Loop HVAC systems did not appear to converge\n   ** Warning ** SimHVAC: Maximum iterations (20) exceeded for all HVAC loops, at RUN PERIOD 1, 10/29 09:00 - 09:15\n   **   ~~~   ** The solution for one or more of the Air Loop HVAC systems did not appear to converge\n   ** Warning ** SimHVAC: Maximum iterations (20) exceeded for all HVAC loops, at RUN PERIOD 1, 12/14 17:45 - 18:00\n   **   ~~~   ** The solution for one or more of the Air Loop HVAC systems did not appear to converge\n   ** Warning ** More than 4% of time (350.4 hours) uncomfortable in one or more zones \n   **   ~~~   ** Based on ASHRAE 55-2004 graph (Section 5.2.1.1)\n   **   ~~~   ** During Environment [01/01/2019 - 12/31/2019]: RUN PERIOD 1\n   **   ~~~   ** 503.5 hours were uncomfortable in zone: BUILDING STORY 1 THERMALZONE\n   ** Warning ** The resource referenced by LifeCycleCost:UsePriceEscalation= \"U.S. AVG  COMMERCIAL-ELECTRICITY\" has no energy cost. \n   **   ~~~   ** ... It is likely that the wrong resource is used. The resource should match the meter used in Utility:Tariff.\n   ** Warning ** The resource referenced by LifeCycleCost:UsePriceEscalation= \"U.S. AVG  COMMERCIAL-DISTILLATE OIL\" has no energy cost. \n   **   ~~~   ** ... It is likely that the wrong resource is used. The resource should match the meter used in Utility:Tariff.\n   ** Warning ** The resource referenced by LifeCycleCost:UsePriceEscalation= \"U.S. AVG  COMMERCIAL-RESIDUAL OIL\" has no energy cost. \n   **   ~~~   ** ... It is likely that the wrong resource is used. The resource should match the meter used in Utility:Tariff.\n   ** Warning ** The resource referenced by LifeCycleCost:UsePriceEscalation= \"U.S. AVG  COMMERCIAL-NATURAL GAS\" has no energy cost. \n   **   ~~~   ** ... It is likely that the wrong resource is used. The resource should match the meter used in Utility:Tariff.\n   ** Warning ** The resource referenced by LifeCycleCost:UsePriceEscalation= \"U.S. AVG  COMMERCIAL-COAL\" has no energy cost. \n   **   ~~~   ** ... It is likely that the wrong resource is used. The resource should match the meter used in Utility:Tariff.\n   ************* Simulation Error Summary *************\n   ** Warning ** The following Report Variables were requested but not generated -- check.rdd file\n   **   ~~~   ** Either the IDF did not contain these elements, the variable name is misspelled,\n   **   ~~~   ** or the requested variable is an advanced output which requires Output : Diagnostics, DisplayAdvancedReportVariables;\n   ************* Key=*, VarName=FANGERPMV, Frequency=TimeStep\n   ************* Key=*, VarName=FANGERPPD, Frequency=TimeStep\n   ************* Key=*, VarName=TIME NOT COMFORTABLE SUMMER CLOTHES, Frequency=TimeStep\n   ************* Key=*, VarName=TIME NOT COMFORTABLE WINTER CLOTHES, Frequency=TimeStep\n   ************* Key=*, VarName=TIME NOT COMFORTABLE SUMMER OR WINTER CLOTHES, Frequency=TimeStep\n   ************* Key=*, VarName=DISTRICT COOLING CHILLED WATER RATE, Frequency=TimeStep\n   ************* Key=*, VarName=DISTRICT COOLING MASS FLOW RATE, Frequency=TimeStep\n   ************* Key=*, VarName=DISTRICT COOLING INLET TEMPERATURE, Frequency=TimeStep\n   ************* Key=*, VarName=DISTRICT COOLING OUTLET TEMPERATURE, Frequency=TimeStep\n   ************* Key=*, VarName=DISTRICT HEATING HOT WATER RATE, Frequency=TimeStep\n   ************* Key=*, VarName=DISTRICT HEATING MASS FLOW RATE, Frequency=TimeStep\n   ************* Key=*, VarName=DISTRICT HEATING INLET TEMPERATURE, Frequency=TimeStep\n   ************* Key=*, VarName=DISTRICT HEATING OUTLET TEMPERATURE, Frequency=TimeStep\n   ************* There are 8 unused schedules in input.\n   ************* There are 13 unused week schedules in input.\n   ************* There are 26 unused day schedules in input.\n   ************* Use Output:Diagnostics,DisplayUnusedSchedules; to see them.\n   *************\n   ************* ===== Recurring Error Summary =====\n   ************* The following recurring error messages occurred.\n   *************\n   *************  ** Warning ** CalcDoe2DXCoil: Coil:Cooling:DX:SingleSpeed=\"BUILDING STORY 1 THERMALZONE PSZ-AC 1SPD DX AC CLG COIL 1282KBTU/HR 9.5EER\" - Full load outlet temperature indicates a possibility of frost/freeze error continues. Outlet air temperature statistics follow:\n   *************  **   ~~~   **   This error occurred 517 total times;\n   *************  **   ~~~   **   during Warmup 0 times;\n   *************  **   ~~~   **   during Sizing 0 times.\n   *************  **   ~~~   **   Max=1.994672  Min=-3.852504\n   *************\n   *************  ** Warning ** CalcDoe2DXCoil: Coil:Cooling:DX:SingleSpeed=\"BUILDING STORY 1 THERMALZONE PSZ-AC 1SPD DX AC CLG COIL 1282KBTU/HR 9.5EER\" - Low condenser dry-bulb temperature error continues...\n   *************  **   ~~~   **   This error occurred 41 total times;\n   *************  **   ~~~   **   during Warmup 0 times;\n   *************  **   ~~~   **   during Sizing 0 times.\n   *************  **   ~~~   **   Max=-0.6 [C]  Min=-17.2 [C]\n   *************\n   *************\n   ************* ===== Final Error Summary =====\n   ************* The following error categories occurred.  Consider correcting or noting.\n   ************* Nominally Unused Constructions\n   ************* ..The nominally unused constructions warning is provided to alert you to potential conditions that can cause\n   ************* ..extra time during simulation. Each construction is calculated by the algorithm indicated in the HeatBalanceAlgorithm\n   ************* ..object. You may remove the constructions indicated (when you use the DisplayExtraWarnings option).\n   *************\n   ************* EnergyPlus Warmup Error Summary. During Warmup: 0 Warning; 0 Severe Errors.\n   ************* EnergyPlus Sizing Error Summary. During Sizing: 8 Warning; 0 Severe Errors.\n   ************* EnergyPlus Completed Successfully-- 668 Warning; 0 Severe Errors; Elapsed Time=00hr 00min 38.43sec\n",
   "file_paths" : [
      "/Users/nmoore/github/urbanopt-cli/spec/test_directory/run/two_building_scenario/2/generated_files",
      "/Users/nmoore/github/urbanopt-cli/spec/test_directory/mappers/../weather/",
      "/Users/nmoore/.rbenv/versions/2.2.4/lib/ruby/gems/2.2.0/gems/openstudio-model-articulation-0.1.1/lib/files",
      "/Users/nmoore/.rbenv/versions/2.2.4/lib/ruby/gems/2.2.0/gems/urbanopt-reopt-0.2.0/lib/files",
      "/Users/nmoore/.rbenv/versions/2.2.4/lib/ruby/gems/2.2.0/gems/openstudio-common-measures-0.1.2/lib/files",
      "/Users/nmoore/.rbenv/versions/2.2.4/lib/ruby/gems/2.2.0/gems/openstudio-extension-0.1.6/lib/files",
      "./files",
      "./weather",
      "../../files",
      "../../weather",
      "./"
   ],
   "hash" : "14468854",
   "measure_paths" : [
      "/Users/nmoore/.rbenv/versions/2.2.4/lib/ruby/gems/2.2.0/gems/openstudio-model-articulation-0.1.1/lib/measures",
      "/Users/nmoore/.rbenv/versions/2.2.4/lib/ruby/gems/2.2.0/gems/urbanopt-reopt-0.2.0/lib/measures",
      "/Users/nmoore/.rbenv/versions/2.2.4/lib/ruby/gems/2.2.0/gems/openstudio-common-measures-0.1.2/lib/measures",
      "/Users/nmoore/.rbenv/versions/2.2.4/lib/ruby/gems/2.2.0/gems/urbanopt-scenario-0.2.0/lib/measures",
      "/Users/nmoore/.rbenv/versions/2.2.4/lib/ruby/gems/2.2.0/gems/urbanopt-geojson-0.2.0/lib/measures",
      "/Users/nmoore/.rbenv/versions/2.2.4/lib/ruby/gems/2.2.0/gems/openstudio-extension-0.1.6/lib/measures"
   ],
   "name" : "Restaurant 1",
   "run_directory" : "/Users/nmoore/github/urbanopt-cli/spec/test_directory/run/two_building_scenario/2",
   "seed_file" : null,
   "started_at" : "20200413T210240Z",
   "steps" : [
      {
         "arguments" : {
            "begin_date" : "2019-01-01",
            "end_date" : "2019-12-31",
            "timesteps_per_hour" : 4
         },
         "measure_dir_name" : "set_run_period",
         "result" : {
            "completed_at" : "20200413T210240Z",
            "measure_class_name" : "SetRunPeriod",
            "measure_display_name" : "SetRunPeriod",
            "measure_name" : "set_run_period",
            "measure_taxonomy" : "Envelope.Form",
            "measure_type" : "ModelMeasure",
            "measure_uid" : "7a84292a-3975-4ab3-9284-6edabcbe750b",
            "measure_version_id" : "c3a54143-dcda-4280-850b-c26cd7260211",
            "measure_version_modified" : "20200229T024314Z",
            "measure_xml_checksum" : "2AF3A68E",
            "started_at" : "20200413T210240Z",
            "stderr" : "",
            "stdout" : "",
            "step_errors" : [],
            "step_files" : [],
            "step_info" : [],
            "step_result" : "Success",
            "step_values" : [
               {
                  "name" : "timesteps_per_hour",
                  "value" : 4
               },
               {
                  "name" : "begin_date",
                  "value" : "2019-01-01"
               },
               {
                  "name" : "end_date",
                  "value" : "2019-12-31"
               }
            ],
            "step_warnings" : []
         }
      },
      {
         "arguments" : {
            "__SKIP__" : false,
            "climate_zone" : "ASHRAE 169-2013-6A",
            "weather_file_name" : "USA_NY_Buffalo-Greater.Buffalo.Intl.AP.725280_TMY3.epw"
         },
         "measure_dir_name" : "ChangeBuildingLocation",
         "result" : {
            "completed_at" : "20200413T210242Z",
            "measure_class_name" : "ChangeBuildingLocation",
            "measure_display_name" : "ChangeBuildingLocation",
            "measure_name" : "change_building_location",
            "measure_taxonomy" : "Whole Building.Space Types",
            "measure_type" : "ModelMeasure",
            "measure_uid" : "d4db4971-f5ba-11e3-a3ac-0800200c9a66",
            "measure_version_id" : "ee75726e-6dad-4da9-9f64-a40f4e79bd92",
            "measure_version_modified" : "20200229T024319Z",
            "measure_xml_checksum" : "057E8D9D",
            "started_at" : "20200413T210240Z",
            "stderr" : "",
            "stdout" : "[openstudio.model.YearDescription] <1> 'UseWeatherFile' is not yet a supported option for YearDescription\n[openstudio.model.YearDescription] <1> 'UseWeatherFile' is not yet a supported option for YearDescription\n",
            "step_errors" : [],
            "step_files" : [],
            "step_final_condition" : "The final weather file is Buffalo Niagara Intl Ap and the model has 3 design day objects.",
            "step_info" : [
               "city is Buffalo Niagara Intl Ap. State is NY",
               "mean dry bulb is 8.966666666666667",
               "Adding object Buffalo Niagara Intl Ap Ann Clg .4% Condns DB=>MWB",
               "Adding object Buffalo Niagara Intl Ap Ann Clg .4% Condns WB=>MDB",
               "Adding object Buffalo Niagara Intl Ap Ann Htg 99.6% Condns DB",
               "Setting Climate Zone to 6A"
            ],
            "step_initial_condition" : "No weather file is set. The model has 0 design day objects",
            "step_result" : "Success",
            "step_values" : [
               {
                  "name" : "weather_file_name",
                  "value" : "USA_NY_Buffalo-Greater.Buffalo.Intl.AP.725280_TMY3.epw"
               },
               {
                  "name" : "climate_zone",
                  "value" : "ASHRAE 169-2013-6A"
               },
               {
                  "name" : "set_year",
                  "value" : 0
               },
               {
                  "name" : "use_upstream_args",
                  "value" : true
               },
               {
                  "name" : "epw_gsub",
                  "value" : "Do Nothing"
               },
               {
                  "name" : "reported_climate_zone",
                  "value" : "ASHRAE 169-2013-6A"
               }
            ],
            "step_warnings" : []
         }
      },
      {
         "arguments" : {
            "__SKIP__" : false,
            "bar_division_method" : "Multiple Space Types - Individual Stories Sliced",
            "bldg_type_a" : "FullServiceRestaurant",
            "bldg_type_a_num_units" : 0,
            "bldg_type_b" : "SmallOffice",
            "bldg_type_b_fract_bldg_area" : 0,
            "bldg_type_b_num_units" : 0,
            "bldg_type_c" : "SmallOffice",
            "bldg_type_c_fract_bldg_area" : 0,
            "bldg_type_c_num_units" : 0,
            "bldg_type_d" : "SmallOffice",
            "bldg_type_d_fract_bldg_area" : 0,
            "bldg_type_d_num_units" : 0,
            "building_rotation" : 0,
            "floor_height" : 10,
            "ns_to_ew_ratio" : 0,
            "num_stories_above_grade" : 1,
            "num_stories_below_grade" : 0,
            "party_wall_fraction" : 0,
            "single_floor_area" : 22313,
            "story_multiplier" : "None",
            "template" : "90.1-2013",
            "wwr" : 0
         },
         "measure_dir_name" : "create_bar_from_building_type_ratios",
         "result" : {
            "completed_at" : "20200413T210311Z",
            "measure_class_name" : "CreateBarFromBuildingTypeRatios",
            "measure_display_name" : "Create Bar From Building Type Ratios",
            "measure_name" : "create_bar_from_building_type_ratios",
            "measure_taxonomy" : "Envelope.Form",
            "measure_type" : "ModelMeasure",
            "measure_uid" : "6e3a14f8-c3c7-4e03-bc51-bef8a52e1a05",
            "measure_version_id" : "98068f42-8546-42bc-b4a5-6bfcd0e332d4",
            "measure_version_modified" : "20200229T024044Z",
            "measure_xml_checksum" : "2AF3A68E",
            "started_at" : "20200413T210301Z",
            "stderr" : "",
            "stdout" : "",
            "step_errors" : [],
            "step_files" : [],
            "step_final_condition" : "The building finished with 12 spaces.",
            "step_info" : [
               "Replacing argument named climate_zone from current measure with a value of ASHRAE 169-2013-6A from ChangeBuildingLocation.",
               "0.0 value for aspect ratio will be replaced with smart default for FullServiceRestaurant of 1.0.",
               "0.0 value for minimum perimeter multiplier will be replaced with smart default for FullServiceRestaurant of 1.0.",
               "0.0 value for window to wall ratio will be replaced with smart default for FullServiceRestaurant of 0.18.",
               "Creating Space Types for FullServiceRestaurant.",
               "Making bar with length of 149 ft and width of 149 ft",
               "Intersecting and matching surfaces in model, this will create additional geometry.",
               "Created bar envelope with floor area of 22,313 ft^2. Total building area is 22,313 ft^2."
            ],
            "step_initial_condition" : "The building started with 0 spaces.",
            "step_result" : "Success",
            "step_values" : [
               {
                  "name" : "bldg_type_a",
                  "value" : "FullServiceRestaurant"
               },
               {
                  "name" : "bldg_type_a_num_units",
                  "value" : 0
               },
               {
                  "name" : "bldg_type_b",
                  "value" : "SmallOffice"
               },
               {
                  "name" : "bldg_type_b_fract_bldg_area",
                  "value" : 0
               },
               {
                  "name" : "bldg_type_b_num_units",
                  "value" : 0
               },
               {
                  "name" : "bldg_type_c",
                  "value" : "SmallOffice"
               },
               {
                  "name" : "bldg_type_c_fract_bldg_area",
                  "value" : 0
               },
               {
                  "name" : "bldg_type_c_num_units",
                  "value" : 0
               },
               {
                  "name" : "bldg_type_d",
                  "value" : "SmallOffice"
               },
               {
                  "name" : "bldg_type_d_fract_bldg_area",
                  "value" : 0
               },
               {
                  "name" : "bldg_type_d_num_units",
                  "value" : 0
               },
               {
                  "name" : "total_bldg_floor_area",
                  "value" : 10000
               },
               {
                  "name" : "single_floor_area",
                  "value" : 22313
               },
               {
                  "name" : "floor_height",
                  "value" : 10
               },
               {
                  "name" : "custom_height_bar",
                  "value" : true
               },
               {
                  "name" : "num_stories_above_grade",
                  "value" : 1
               },
               {
                  "name" : "num_stories_below_grade",
                  "value" : 0
               },
               {
                  "name" : "building_rotation",
                  "value" : 0
               },
               {
                  "name" : "template",
                  "value" : "90.1-2013"
               },
               {
                  "name" : "ns_to_ew_ratio",
                  "value" : 0
               },
               {
                  "name" : "perim_mult",
                  "value" : 0
               },
               {
                  "name" : "bar_sep_dist_mult",
                  "value" : 10
               },
               {
                  "name" : "wwr",
                  "value" : 0
               },
               {
                  "name" : "party_wall_fraction",
                  "value" : 0
               },
               {
                  "name" : "party_wall_stories_north",
                  "value" : 0
               },
               {
                  "name" : "party_wall_stories_south",
                  "value" : 0
               },
               {
                  "name" : "party_wall_stories_east",
                  "value" : 0
               },
               {
                  "name" : "party_wall_stories_west",
                  "value" : 0
               },
               {
                  "name" : "bottom_story_ground_exposed_floor",
                  "value" : true
               },
               {
                  "name" : "top_story_exterior_exposed_roof",
                  "value" : true
               },
               {
                  "name" : "story_multiplier",
                  "value" : "None"
               },
               {
                  "name" : "make_mid_story_surfaces_adiabatic",
                  "value" : false
               },
               {
                  "name" : "bar_division_method",
                  "value" : "Multiple Space Types - Individual Stories Sliced"
               },
               {
                  "name" : "double_loaded_corridor",
                  "value" : "Primary Space Type"
               },
               {
                  "name" : "space_type_sort_logic",
                  "value" : "Building Type > Size"
               },
               {
                  "name" : "use_upstream_args",
                  "value" : true
               },
               {
                  "name" : "climate_zone",
                  "value" : "Lookup From Stat File"
               },
               {
                  "name" : "wall_area_ip",
                  "units" : "ft^2",
                  "value" : 5975.0146443335179
               },
               {
                  "name" : "ns_wall_area_ip",
                  "units" : "ft^2",
                  "value" : 2987.507322166759
               },
               {
                  "name" : "ew_wall_area_ip",
                  "units" : "ft^2",
                  "value" : 2987.5073221667585
               },
               {
                  "name" : "floor_area_to_perim_ratio",
                  "value" : 11.382402897455352
               },
               {
                  "name" : "bar_width",
                  "units" : "ft",
                  "value" : 149.37536610833794
               }
            ],
            "step_warnings" : [
               "User-defined single floor area was used for calculation of total building floor area",
               "Cannot use custom height bar with single floor area method, will not create custom height bar."
            ]
         }
      },
      {
         "arguments" : {
            "__SKIP__" : false,
            "add_hvac" : false,
            "add_refrigeration" : false,
            "template" : "90.1-2013"
         },
         "measure_dir_name" : "create_typical_building_from_model",
         "name" : "create_typical_building_from_model 1",
         "result" : {
            "completed_at" : "20200413T210330Z",
            "measure_class_name" : "CreateTypicalBuildingFromModel",
            "measure_display_name" : "Create Typical Building from Model",
            "measure_name" : "create_typical_building_from_model",
            "measure_taxonomy" : "Whole Building.Space Types",
            "measure_type" : "ModelMeasure",
            "measure_uid" : "339a2e3a-273c-4494-bb50-bfe586a0647c",
            "measure_version_id" : "41239158-445a-414c-a6f0-2fba3a7c696c",
            "measure_version_modified" : "20200229T024052Z",
            "measure_xml_checksum" : "EE13F09F",
            "started_at" : "20200413T210311Z",
            "stderr" : "",
            "stdout" : "",
            "step_errors" : [],
            "step_files" : [],
            "step_final_condition" : "The building finished with 699 objects.",
            "step_info" : [
               "Replacing argument named climate_zone from current measure with a value of ASHRAE 169-2013-6A from ChangeBuildingLocation.",
               "Replacing argument named template from current measure with a value of 90.1-2013 from create_bar_from_building_type_ratios.",
               "Adding loads to space type named FullServiceRestaurant Dining - 90.1-2013",
               "Adding loads to space type named FullServiceRestaurant Kitchen - 90.1-2013",
               "Using climate zone ASHRAE 169-2013-6A from user arguments",
               "Adding default construction set named Res 90.1-2013 - FullSrvRest - ASHRAE 169-2013-6A",
               "No elevators added to the building.",
               "Adding Exterior Lights named Parking Areas and Drives Def (W/ft^2) with design level of 0.1 * 90,368.",
               "Adding Exterior Lights named Building Facades Def (W/ft^2) with design level of 0.15 * 5,975.",
               "Adding Exterior Lights named Main Entries Def (W/ft) with design level of 30.0 * 18.",
               "Adding Exterior Lights named Other Doors Def (W/ft) with design level of 20.0 * 27.",
               "Adding 270 (cfm) of exhaust to Zone FullServiceRestaurant Kitchen A  - Story Ground, with 252 (cfm) of makeup air from Zone FullServiceRestaurant Dining A  - Story Ground",
               "Adding 157 (cfm) of exhaust to Zone FullServiceRestaurant Kitchen A end_b - Story Ground",
               "Adding 2,152 (cfm) of exhaust to Zone FullServiceRestaurant Kitchen B  - Story Ground, with 2,009 (cfm) of makeup air from Zone FullServiceRestaurant Dining B  - Story Ground",
               "Adding 1,253 (cfm) of exhaust to Zone FullServiceRestaurant Kitchen B end_b - Story Ground",
               "Adding 270 (cfm) of exhaust to Zone FullServiceRestaurant Kitchen C  - Story Ground, with 252 (cfm) of makeup air from Zone FullServiceRestaurant Dining C  - Story Ground",
               "Adding 158 (cfm) of exhaust to Zone FullServiceRestaurant Kitchen C end_b - Story Ground",
               "Adding FullServiceRestaurant Kitchen - 90.1-2013 Service Water Loop to the building. It has 1 water use connections.",
               "Assigning FullServiceRestaurant Dining - 90.1-2013 Thermostat to thermal zones with FullServiceRestaurant Dining - 90.1-2013 assigned.",
               "Assigning FullServiceRestaurant Kitchen - 90.1-2013 Thermostat to thermal zones with FullServiceRestaurant Kitchen - 90.1-2013 assigned.",
               "Using OpenStudio Standards version 0.2.11 with template 90.1-2013.",
               "Loading OpenStudio Standards data for 90.1-2013",
               "FullServiceRestaurant Dining had no people, one has been created.",
               "FullServiceRestaurant Dining set occupancy to 70.0 people/1000 ft^2.",
               "FullServiceRestaurant Dining had no lights, one has been created.",
               "FullServiceRestaurant Dining set LPD to 0.89 W/ft^2.",
               "FullServiceRestaurant Dining had no electric equipment, one has been created.",
               "FullServiceRestaurant Dining set electric EPD to 6.032 W/ft^2.",
               "FullServiceRestaurant Dining had no ventilation specification, one has been created.",
               "FullServiceRestaurant Dining set ventilation per area to 0.18 cfm/ft^2.",
               "FullServiceRestaurant Dining set ventilation per person to 7.5 cfm/person.",
               "FullServiceRestaurant Dining set occupancy schedule to RestaurantSitDown BLDG_OCC_SCH.",
               "FullServiceRestaurant Dining set occupant activity schedule to RestaurantSitDown ACTIVITY_SCH.",
               "FullServiceRestaurant Dining set lighting schedule to RestaurantSitDown BLDG_LIGHT_DINING_SCH_2013.",
               "FullServiceRestaurant Dining set electric equipment schedule to RestaurantSitDown BLDG_EQUIP_SCH.",
               "FullServiceRestaurant Dining set infiltration schedule to RestaurantSitDown INFIL_HALF_ON_SCH.",
               "FullServiceRestaurant Kitchen had no people, one has been created.",
               "FullServiceRestaurant Kitchen set occupancy to 5.0 people/1000 ft^2.",
               "FullServiceRestaurant Kitchen had no lights, one has been created.",
               "FullServiceRestaurant Kitchen set LPD to 1.21 W/ft^2.",
               "FullServiceRestaurant Kitchen had no electric equipment, one has been created.",
               "FullServiceRestaurant Kitchen set electric EPD to 37.53 W/ft^2.",
               "FullServiceRestaurant Kitchen had no gas equipment, one has been created.",
               "FullServiceRestaurant Kitchen set gas EPD to 205.81 Btu/hr*ft^2.",
               "FullServiceRestaurant Kitchen had no ventilation specification, one has been created.",
               "FullServiceRestaurant Kitchen set ventilation per area to 0.18 cfm/ft^2.",
               "FullServiceRestaurant Kitchen set ventilation per person to 7.5 cfm/person.",
               "FullServiceRestaurant Kitchen set occupancy schedule to RestaurantSitDown BLDG_OCC_SCH.",
               "FullServiceRestaurant Kitchen set occupant activity schedule to RestaurantSitDown ACTIVITY_SCH.",
               "FullServiceRestaurant Kitchen set lighting schedule to RestaurantSitDown BLDG_LIGHT_KITCHEN_SCH_2010_2013.",
               "FullServiceRestaurant Kitchen set electric equipment schedule to RestaurantSitDown BLDG_EQUIP_SCH.",
               "FullServiceRestaurant Kitchen set gas equipment schedule to RestaurantSitDown Rest_GAS_EQUIP_SCH.",
               "FullServiceRestaurant Kitchen set infiltration schedule to RestaurantSitDown INFIL_HALF_ON_SCH.",
               "Adding construction set: 90.1-2013-ASHRAE 169-2013-6A-FullServiceRestaurant--is_residentialNo",
               "Adding construction Typical Insulated Exterior Mass Floor R-19.61.",
               "Adding construction Typical Insulated Steel Framed Exterior Wall R-20.41.",
               "Adding construction Typical Wood Joist Attic Floor R-47.62.",
               "Adding construction Typical Interior Floor.",
               "Adding construction Typical Interior Wall.",
               "Adding construction Typical Interior Ceiling.",
               "Adding construction Typical Insulated Carpeted 8in Slab Floor.",
               "Adding construction Typical Insulated Basement Mass Wall.",
               "Adding construction U 0.48 SHGC 0.40 Dbl Ref-D Clr 6mm/13mm.",
               "Adding construction Typical Insulated Metal Door R-2.0.",
               "Adding construction U 0.44 SHGC 0.26 Dbl Ref-B-H Clr 6mm/13mm Air.",
               "Adding construction Typical Overhead Door R-2.0.",
               "Adding construction Window_U_0.50_SHGC_0.40_Skylight_Frame_Width_0.430_in.",
               "Adding construction Typical Interior Window.",
               "Adding construction Typical Interior Door.",
               "Adding construction Typical Interior Partition.",
               "For FullServiceRestaurant Dining A  - Story Ground, set infiltration rate to 0.112 cfm/ft2 exterior wall area (aka 1.0 cfm/ft2 @75Pa).",
               "For FullServiceRestaurant Dining A end_a - Story Ground, set infiltration rate to 0.112 cfm/ft2 exterior wall area (aka 1.0 cfm/ft2 @75Pa).",
               "For FullServiceRestaurant Dining B  - Story Ground, no exterior wall area was found, no infiltration will be added.",
               "For FullServiceRestaurant Dining B end_a - Story Ground, set infiltration rate to 0.112 cfm/ft2 exterior wall area (aka 1.0 cfm/ft2 @75Pa).",
               "For FullServiceRestaurant Dining C  - Story Ground, set infiltration rate to 0.112 cfm/ft2 exterior wall area (aka 1.0 cfm/ft2 @75Pa).",
               "For FullServiceRestaurant Dining C end_a - Story Ground, set infiltration rate to 0.112 cfm/ft2 exterior wall area (aka 1.0 cfm/ft2 @75Pa).",
               "For FullServiceRestaurant Kitchen A  - Story Ground, set infiltration rate to 0.112 cfm/ft2 exterior wall area (aka 1.0 cfm/ft2 @75Pa).",
               "For FullServiceRestaurant Kitchen A end_b - Story Ground, set infiltration rate to 0.112 cfm/ft2 exterior wall area (aka 1.0 cfm/ft2 @75Pa).",
               "For FullServiceRestaurant Kitchen B  - Story Ground, no exterior wall area was found, no infiltration will be added.",
               "For FullServiceRestaurant Kitchen B end_b - Story Ground, set infiltration rate to 0.112 cfm/ft2 exterior wall area (aka 1.0 cfm/ft2 @75Pa).",
               "For FullServiceRestaurant Kitchen C  - Story Ground, set infiltration rate to 0.112 cfm/ft2 exterior wall area (aka 1.0 cfm/ft2 @75Pa).",
               "For FullServiceRestaurant Kitchen C end_b - Story Ground, set infiltration rate to 0.112 cfm/ft2 exterior wall area (aka 1.0 cfm/ft2 @75Pa).",
               "The building only has 1 story, no elevators will be added.",
               "For FullServiceRestaurant Dining - 90.1-2013, floor area = 16226 ft^2.",
               "For FullServiceRestaurant Dining - 90.1-2013, number of spaces = 6.",
               "For FullServiceRestaurant Dining - 90.1-2013, number of people = 1136.",
               "For FullServiceRestaurant Kitchen - 90.1-2013, floor area = 6087 ft^2.",
               "For FullServiceRestaurant Kitchen - 90.1-2013, number of spaces = 6.",
               "For FullServiceRestaurant Kitchen - 90.1-2013, number of people = 30.",
               "Facade and Landscape exterior lights shut off from {:hr=>24, :min=>0} to {:hr=>6, :min=>0}",
               "Non Facade and Landscape lights reduce by 30.0 % from {:hr=>24, :min=>0} to {:hr=>6, :min=>0}",
               "Added 0.1 W/ft^2 of lighting for 90367.64999999998 ft^2 of parking area.",
               "Added 0.15 W/ft^2 of lighting for 5975.014644333517 ft^2 of building facade area.",
               "Added 30.0 W/ft of lighting for 17.850399999999993 ft of main entry length.",
               "Added 20.0 W/ft of lighting for 26.77559999999999 ft of other doors.",
               "For Prototype: Zone FullServiceRestaurant Kitchen A  - Story Ground Exhaust Fan: Pressure Rise = 0.5in w.c.",
               "For Zone FullServiceRestaurant Kitchen A  - Story Ground Exhaust Fan: allowed_hp = 0.04HP; motor eff = 70.0%; total fan eff = 39% based on 270 cfm.",
               "For Prototype: Zone FullServiceRestaurant Kitchen A end_b - Story Ground Exhaust Fan: Pressure Rise = 0.5in w.c.",
               "For Zone FullServiceRestaurant Kitchen A end_b - Story Ground Exhaust Fan: allowed_hp = 0.02HP; motor eff = 70.0%; total fan eff = 39% based on 157 cfm.",
               "For Prototype: Zone FullServiceRestaurant Kitchen B  - Story Ground Exhaust Fan: Pressure Rise = 0.5in w.c.",
               "For Zone FullServiceRestaurant Kitchen B  - Story Ground Exhaust Fan: allowed_hp = 0.34HP; motor eff = 70.0%; total fan eff = 39% based on 2152 cfm.",
               "For Prototype: Zone FullServiceRestaurant Kitchen B end_b - Story Ground Exhaust Fan: Pressure Rise = 0.5in w.c.",
               "For Zone FullServiceRestaurant Kitchen B end_b - Story Ground Exhaust Fan: allowed_hp = 0.2HP; motor eff = 70.0%; total fan eff = 39% based on 1253 cfm.",
               "For Prototype: Zone FullServiceRestaurant Kitchen C  - Story Ground Exhaust Fan: Pressure Rise = 0.5in w.c.",
               "For Zone FullServiceRestaurant Kitchen C  - Story Ground Exhaust Fan: allowed_hp = 0.04HP; motor eff = 70.0%; total fan eff = 39% based on 270 cfm.",
               "For Prototype: Zone FullServiceRestaurant Kitchen C end_b - Story Ground Exhaust Fan: Pressure Rise = 0.5in w.c.",
               "For Zone FullServiceRestaurant Kitchen C end_b - Story Ground Exhaust Fan: allowed_hp = 0.02HP; motor eff = 70.0%; total fan eff = 39% based on 158 cfm.",
               "For FullServiceRestaurant Dining - 90.1-2013, floor area = 16226 ft^2.",
               "For FullServiceRestaurant Dining - 90.1-2013, number of spaces = 6.",
               "For FullServiceRestaurant Dining - 90.1-2013, number of people = 1136.",
               "For FullServiceRestaurant Kitchen - 90.1-2013, floor area = 6087 ft^2.",
               "For FullServiceRestaurant Kitchen - 90.1-2013, number of spaces = 6.",
               "For FullServiceRestaurant Kitchen - 90.1-2013, number of people = 30.",
               "Added Booster FullServiceRestaurant Kitchen - 90.1-2013 Service Water Use 5.39gpm at 180F.",
               "Added FullServiceRestaurant Kitchen - 90.1-2013 Service Water Use 3.6gpm at 140F.",
               "Capacity of 339793 Btu/hr = 1.0 peak fraction * 324 gal/hr * 8.4 lb/gal * 1.0 Btu/lb F * (140 - 40 deltaF / 0.8 htg eff).",
               "Added water heater called 340gal NaturalGas Water Heater - 340kBtu/hr",
               "Pipe length 20ft. For non-circulating systems, assume water heater is close to point of use.",
               "Added 20ft of Uninsulated copper pipe 0.75in type L losing heat to 70F air to FullServiceRestaurant Kitchen - 90.1-2013 Service Water Loop.",
               "Added non-circulating SWH loop called FullServiceRestaurant Kitchen - 90.1-2013 Service Water Loop",
               "Capacity of 65240 Btu/hr = 1.0 peak fraction * 194 gal/hr * 8.4 lb/gal * 1.0 Btu/lb F * (180 - 140 deltaF / 1.0 htg eff).",
               "Adding booster water heater to FullServiceRestaurant Kitchen - 90.1-2013 Service Water Loop",
               "Started adding daylighting controls.",
               "For FullServiceRestaurant Dining A  - Story Ground: illuminance setpoint = 300.0 Lux",
               "For FullServiceRestaurant Dining A  - Story Ground: sensor 1 controls 29% of the zone lighting.",
               "For FullServiceRestaurant Dining A  - Story Ground: sensor 2 controls 29% of the zone lighting.",
               "For FullServiceRestaurant Dining A end_a - Story Ground, primary sidelighting control not required because less than 150W of lighting are present in the primary daylighted area per 9.4.1.1(e).",
               "For FullServiceRestaurant Dining A end_a - Story Ground, secondary sidelighting control not required because less than 300W of lighting are present in the combined primary and secondary daylighted areas per 9.4.1.1(e).",
               "For FullServiceRestaurant Dining B  - Story Ground, daylighting control not applicable because no exterior fenestration is present.",
               "For FullServiceRestaurant Dining B end_a - Story Ground: illuminance setpoint = 300.0 Lux",
               "For FullServiceRestaurant Dining B end_a - Story Ground: sensor 1 controls 29% of the zone lighting.",
               "For FullServiceRestaurant Dining B end_a - Story Ground: sensor 2 controls 29% of the zone lighting.",
               "For FullServiceRestaurant Dining C  - Story Ground: illuminance setpoint = 300.0 Lux",
               "For FullServiceRestaurant Dining C  - Story Ground: sensor 1 controls 29% of the zone lighting.",
               "For FullServiceRestaurant Dining C  - Story Ground: sensor 2 controls 29% of the zone lighting.",
               "For FullServiceRestaurant Dining C end_a - Story Ground, primary sidelighting control not required because less than 150W of lighting are present in the primary daylighted area per 9.4.1.1(e).",
               "For FullServiceRestaurant Dining C end_a - Story Ground, secondary sidelighting control not required because less than 300W of lighting are present in the combined primary and secondary daylighted areas per 9.4.1.1(e).",
               "For FullServiceRestaurant Kitchen A  - Story Ground, primary sidelighting control not required because less than 150W of lighting are present in the primary daylighted area per 9.4.1.1(e).",
               "For FullServiceRestaurant Kitchen A  - Story Ground, secondary sidelighting control not required because less than 300W of lighting are present in the combined primary and secondary daylighted areas per 9.4.1.1(e).",
               "For FullServiceRestaurant Kitchen A end_b - Story Ground, primary sidelighting control not required because less than 150W of lighting are present in the primary daylighted area per 9.4.1.1(e).",
               "For FullServiceRestaurant Kitchen A end_b - Story Ground, secondary sidelighting control not required because less than 300W of lighting are present in the combined primary and secondary daylighted areas per 9.4.1.1(e).",
               "For FullServiceRestaurant Kitchen B  - Story Ground, daylighting control not applicable because no exterior fenestration is present.",
               "For FullServiceRestaurant Kitchen B end_b - Story Ground: no specific illuminance setpoint defined for 90.1-2013 FullServiceRestaurant Kitchen, assuming 375 Lux.",
               "For FullServiceRestaurant Kitchen B end_b - Story Ground: sensor 1 controls 29% of the zone lighting.",
               "For FullServiceRestaurant Kitchen B end_b - Story Ground: sensor 2 controls 29% of the zone lighting.",
               "For FullServiceRestaurant Kitchen C  - Story Ground, primary sidelighting control not required because less than 150W of lighting are present in the primary daylighted area per 9.4.1.1(e).",
               "For FullServiceRestaurant Kitchen C  - Story Ground, secondary sidelighting control not required because less than 300W of lighting are present in the combined primary and secondary daylighted areas per 9.4.1.1(e).",
               "For FullServiceRestaurant Kitchen C end_b - Story Ground, primary sidelighting control not required because less than 150W of lighting are present in the primary daylighted area per 9.4.1.1(e).",
               "For FullServiceRestaurant Kitchen C end_b - Story Ground, secondary sidelighting control not required because less than 300W of lighting are present in the combined primary and secondary daylighted areas per 9.4.1.1(e).",
               "Finished adding daylighting controls.",
               "Finished adding internal mass",
               "FullServiceRestaurant Dining - 90.1-2013 set heating setpoint schedule to RestaurantSitDown HTGSETP_SCH_NO_OPTIMUM.",
               "FullServiceRestaurant Dining - 90.1-2013 set cooling setpoint schedule to RestaurantSitDown CLGSETP_SCH_NO_OPTIMUM.",
               "FullServiceRestaurant Kitchen - 90.1-2013 set heating setpoint schedule to RestaurantSitDown HTGSETP_KITCHEN_SCH_NO_OPTIMUM.",
               "FullServiceRestaurant Kitchen - 90.1-2013 set cooling setpoint schedule to RestaurantSitDown CLGSETP_KITCHEN_SCH_NO_OPTIMUM.",
               "Added internal mass 'FullServiceRestaurant Kitchen C end_b - Story Ground Mass' to space 'FullServiceRestaurant Kitchen C end_b - Story Ground'.",
               "Added internal mass 'FullServiceRestaurant Dining A end_a - Story Ground Mass' to space 'FullServiceRestaurant Dining A end_a - Story Ground'.",
               "Added internal mass 'FullServiceRestaurant Kitchen B end_b - Story Ground Mass' to space 'FullServiceRestaurant Kitchen B end_b - Story Ground'.",
               "Added internal mass 'FullServiceRestaurant Dining B  - Story Ground Mass' to space 'FullServiceRestaurant Dining B  - Story Ground'.",
               "Added internal mass 'FullServiceRestaurant Kitchen B  - Story Ground Mass' to space 'FullServiceRestaurant Kitchen B  - Story Ground'.",
               "Added internal mass 'FullServiceRestaurant Kitchen A end_b - Story Ground Mass' to space 'FullServiceRestaurant Kitchen A end_b - Story Ground'.",
               "Added internal mass 'FullServiceRestaurant Kitchen A  - Story Ground Mass' to space 'FullServiceRestaurant Kitchen A  - Story Ground'.",
               "Added internal mass 'FullServiceRestaurant Dining A  - Story Ground Mass' to space 'FullServiceRestaurant Dining A  - Story Ground'.",
               "Added internal mass 'FullServiceRestaurant Dining B end_a - Story Ground Mass' to space 'FullServiceRestaurant Dining B end_a - Story Ground'.",
               "Added internal mass 'FullServiceRestaurant Dining C end_a - Story Ground Mass' to space 'FullServiceRestaurant Dining C end_a - Story Ground'.",
               "Added internal mass 'FullServiceRestaurant Kitchen C  - Story Ground Mass' to space 'FullServiceRestaurant Kitchen C  - Story Ground'.",
               "Added internal mass 'FullServiceRestaurant Dining C  - Story Ground Mass' to space 'FullServiceRestaurant Dining C  - Story Ground'.",
               "Finished adding internal mass",
               "Cannot remove Object of type 'OS:Schedule:Day' and named 'Schedule Day 26', because that would invalidate Object of type 'OS:Schedule:Ruleset' and named 'Schedule Ruleset 6'.",
               "Cannot remove Object of type 'OS:Schedule:Day' and named 'Schedule Day 25', because that would invalidate Object of type 'OS:Schedule:Ruleset' and named 'Schedule Ruleset 5'.",
               "Cannot remove Object of type 'OS:Schedule:Day' and named 'Schedule Day 23', because that would invalidate Object of type 'OS:Schedule:Ruleset' and named 'Schedule Ruleset 3'."
            ],
            "step_initial_condition" : "The building started with 216 objects.",
            "step_result" : "Success",
            "step_values" : [
               {
                  "name" : "template",
                  "value" : "90.1-2013"
               },
               {
                  "name" : "system_type",
                  "value" : "Inferred"
               },
               {
                  "name" : "hvac_delivery_type",
                  "value" : "Forced Air"
               },
               {
                  "name" : "htg_src",
                  "value" : "NaturalGas"
               },
               {
                  "name" : "clg_src",
                  "value" : "Electricity"
               },
               {
                  "name" : "swh_src",
                  "value" : "Inferred"
               },
               {
                  "name" : "kitchen_makeup",
                  "value" : "Adjacent"
               },
               {
                  "name" : "exterior_lighting_zone",
                  "value" : "3 - All Other Areas"
               },
               {
                  "name" : "add_constructions",
                  "value" : true
               },
               {
                  "name" : "add_space_type_loads",
                  "value" : true
               },
               {
                  "name" : "add_elevators",
                  "value" : true
               },
               {
                  "name" : "add_internal_mass",
                  "value" : true
               },
               {
                  "name" : "add_exterior_lights",
                  "value" : true
               },
               {
                  "name" : "onsite_parking_fraction",
                  "value" : 1
               },
               {
                  "name" : "add_exhaust",
                  "value" : true
               },
               {
                  "name" : "add_swh",
                  "value" : true
               },
               {
                  "name" : "add_thermostat",
                  "value" : true
               },
               {
                  "name" : "add_hvac",
                  "value" : false
               },
               {
                  "name" : "add_refrigeration",
                  "value" : false
               },
               {
                  "name" : "modify_wkdy_op_hrs",
                  "value" : false
               },
               {
                  "name" : "wkdy_op_hrs_start_time",
                  "value" : 8
               },
               {
                  "name" : "wkdy_op_hrs_duration",
                  "value" : 8
               },
               {
                  "name" : "modify_wknd_op_hrs",
                  "value" : false
               },
               {
                  "name" : "wknd_op_hrs_start_time",
                  "value" : 8
               },
               {
                  "name" : "wknd_op_hrs_duration",
                  "value" : 8
               },
               {
                  "name" : "unmet_hours_tolerance",
                  "value" : 1
               },
               {
                  "name" : "remove_objects",
                  "value" : true
               },
               {
                  "name" : "use_upstream_args",
                  "value" : true
               },
               {
                  "name" : "enable_dst",
                  "value" : true
               },
               {
                  "name" : "climate_zone",
                  "value" : "Lookup From Model"
               }
            ],
            "step_warnings" : [
               "[openstudio.standards.Construction] Can only set the u-value of opaque constructions or simple glazing. U 0.48 SHGC 0.40 Dbl Ref-D Clr 6mm/13mm is not opaque or simple glazing.",
               "[openstudio.standards.Construction] Can only set the u-value of opaque constructions or simple glazing. U 0.44 SHGC 0.26 Dbl Ref-B-H Clr 6mm/13mm Air is not opaque or simple glazing.",
               "[openstudio.standards.Construction] Can only set the u-value of opaque constructions or simple glazing. Window_U_0.50_SHGC_0.40_Skylight_Frame_Width_0.430_in is not opaque or simple glazing.",
               "[openstudio.model.Model] Model has zone with",
               "[openstudio.model.Model] Model has zone with",
               "[openstudio.model.Model] Model has zone with",
               "[openstudio.model.Model] In model_add_typical, num_water_heaters = 1"
            ]
         }
      },
      {
         "arguments" : {
            "__SKIP__" : false,
            "blend_method" : "Building Story"
         },
         "measure_dir_name" : "blended_space_type_from_model",
         "result" : {
            "completed_at" : "20200413T210330Z",
            "measure_class_name" : "BlendedSpaceTypeFromModel",
            "measure_display_name" : "Blended Space Type from Model",
            "measure_name" : "blended_space_type_from_model",
            "measure_taxonomy" : "Whole Building.Space Types",
            "measure_type" : "ModelMeasure",
            "measure_uid" : "667c2f1f-0927-4dbd-a7be-1087b5c15181",
            "measure_version_id" : "291ff117-9c95-4d04-b17b-edf8b051678d",
            "measure_version_modified" : "20200229T024055Z",
            "measure_xml_checksum" : "28AD5222",
            "started_at" : "20200413T210330Z",
            "stderr" : "",
            "stdout" : "",
            "step_errors" : [],
            "step_files" : [],
            "step_final_condition" : "The final building uses 1 spaces types.",
            "step_info" : [
               "Story Ground area is 22,313.00 ft^2, number of people is 1166.",
               "Story Ground accounts for 2 space types.",
               "Blending space type FullServiceRestaurant Dining - 90.1-2013 Story Ground. Floor area ratio is 0.727. People ratio is 0.974",
               "Blending space type FullServiceRestaurant Kitchen - 90.1-2013 Story Ground. Floor area ratio is 0.273. People ratio is 0.026",
               "Blending space FullServiceRestaurant Dining A end_a - Story Ground. Floor area ratio is 0.01. People ratio is 0.014",
               "Blending space FullServiceRestaurant Dining B  - Story Ground. Floor area ratio is 0.501. People ratio is 0.671",
               "Blending space FullServiceRestaurant Dining A  - Story Ground. Floor area ratio is 0.063. People ratio is 0.084",
               "Blending space FullServiceRestaurant Dining B end_a - Story Ground. Floor area ratio is 0.08. People ratio is 0.107",
               "Blending space FullServiceRestaurant Dining C end_a - Story Ground. Floor area ratio is 0.01. People ratio is 0.014",
               "Blending space FullServiceRestaurant Dining C  - Story Ground. Floor area ratio is 0.063. People ratio is 0.084",
               "Blending space FullServiceRestaurant Kitchen C end_b - Story Ground. Floor area ratio is 0.01. People ratio is 0.001",
               "Blending space FullServiceRestaurant Kitchen B end_b - Story Ground. Floor area ratio is 0.08. People ratio is 0.008",
               "Blending space FullServiceRestaurant Kitchen B  - Story Ground. Floor area ratio is 0.138. People ratio is 0.013",
               "Blending space FullServiceRestaurant Kitchen A end_b - Story Ground. Floor area ratio is 0.01. People ratio is 0.001",
               "Blending space FullServiceRestaurant Kitchen A  - Story Ground. Floor area ratio is 0.017. People ratio is 0.002",
               "Blending space FullServiceRestaurant Kitchen C  - Story Ground. Floor area ratio is 0.017. People ratio is 0.002"
            ],
            "step_initial_condition" : "The initial building uses 2 spaces types.",
            "step_result" : "Success",
            "step_values" : [
               {
                  "name" : "blend_method",
                  "value" : "Building Story"
               }
            ],
            "step_warnings" : [
               "FullServiceRestaurant Dining A  - Story Ground has one or more daylighting controls. Lighting loads from blended space type may affect lighting reduction from daylighting controls.",
               "FullServiceRestaurant Dining B end_a - Story Ground has one or more daylighting controls. Lighting loads from blended space type may affect lighting reduction from daylighting controls.",
               "FullServiceRestaurant Dining C  - Story Ground has one or more daylighting controls. Lighting loads from blended space type may affect lighting reduction from daylighting controls.",
               "FullServiceRestaurant Kitchen B end_b - Story Ground has one or more daylighting controls. Lighting loads from blended space type may affect lighting reduction from daylighting controls."
            ]
         }
      },
      {
         "arguments" : {
            "__SKIP__" : false,
            "feature_id" : "2",
            "geojson_file" : "/Users/nmoore/github/urbanopt-cli/spec/test_directory/example_project.json",
            "surrounding_buildings" : "ShadingOnly"
         },
         "measure_dir_name" : "urban_geometry_creation",
         "result" : {
            "completed_at" : "20200413T210335Z",
            "measure_class_name" : "UrbanGeometryCreation",
            "measure_display_name" : "UrbanGeometryCreation",
            "measure_name" : "urban_geometry_creation",
            "measure_taxonomy" : "Envelope.Form",
            "measure_type" : "ModelMeasure",
            "measure_uid" : "5ab85d6b-c9af-4361-8ab9-613ee99a5666",
            "measure_version_id" : "cf023329-6ef3-43b3-a316-b08fabb47cd2",
            "measure_version_modified" : "20200327T211951Z",
            "measure_xml_checksum" : "D254E772",
            "started_at" : "20200413T210334Z",
            "stderr" : "",
            "stdout" : "",
            "step_errors" : [],
            "step_files" : [],
            "step_info" : [
               "Min_lat = 42.81803226424341, min_lon = -78.850630729414",
               "13 nearby buildings found",
               "Intersecting surfaces",
               "Matching surfaces",
               "Changing adjacent surfaces to adiabatic"
            ],
            "step_result" : "Success",
            "step_values" : [
               {
                  "name" : "geojson_file",
                  "value" : "/Users/nmoore/github/urbanopt-cli/spec/test_directory/example_project.json"
               },
               {
                  "name" : "feature_id",
                  "value" : "2"
               },
               {
                  "name" : "surrounding_buildings",
                  "value" : "ShadingOnly"
               }
            ],
            "step_warnings" : [
               "Surface elevation not set for building 'Restaurant 1'",
               "Reversing floor print",
               "Reversing floor print",
               "Reversing floor print",
               "Reversing floor print",
               "Reversing floor print",
               "Reversing floor print",
               "Reversing floor print"
            ]
         }
      },
      {
         "arguments" : {
            "__SKIP__" : false,
            "add_constructions" : false,
            "add_elevators" : false,
            "add_exhaust" : false,
            "add_exterior_lights" : false,
            "add_hvac" : true,
            "add_refrigeration" : false,
            "add_space_type_loads" : false,
            "add_swh" : false,
            "remove_objects" : false,
            "system_type" : "Inferred",
            "template" : "90.1-2013",
            "use_upstream_args" : false
         },
         "measure_dir_name" : "create_typical_building_from_model",
         "name" : "create_typical_building_from_model 2",
         "result" : {
            "completed_at" : "20200413T210401Z",
            "measure_class_name" : "CreateTypicalBuildingFromModel",
            "measure_display_name" : "Create Typical Building from Model",
            "measure_name" : "create_typical_building_from_model",
            "measure_taxonomy" : "Whole Building.Space Types",
            "measure_type" : "ModelMeasure",
            "measure_uid" : "339a2e3a-273c-4494-bb50-bfe586a0647c",
            "measure_version_id" : "41239158-445a-414c-a6f0-2fba3a7c696c",
            "measure_version_modified" : "20200229T024052Z",
            "measure_xml_checksum" : "EE13F09F",
            "started_at" : "20200413T210336Z",
            "stderr" : "",
            "stdout" : "[utilities.geometry.join] <1> Union has inner loops\n[utilities.geometry.joinAll] <1> Expected polygons to join together\n[utilities.geometry.join] <1> Union has inner loops\n[utilities.geometry.joinAll] <1> Expected polygons to join together\n",
            "step_errors" : [],
            "step_files" : [],
            "step_final_condition" : "The building finished with 632 objects.",
            "step_info" : [
               "Assigning Story Ground Blended Space Type Thermostat to thermal zones with Story Ground Blended Space Type assigned.",
               "Using OpenStudio Standards version 0.2.11 with template 90.1-2013.",
               "Loading OpenStudio Standards data for 90.1-2013",
               "Started adding daylighting controls.",
               "For Building Story 1 Space: illuminance setpoint = 300.0 Lux",
               "For Building Story 1 Space: sensor 1 controls 15% of the zone lighting.",
               "For Building Story 1 Space: sensor 2 controls 33% of the zone lighting.",
               "Finished adding daylighting controls.",
               "Finished adding internal mass",
               "Story Ground Blended Space Type set heating setpoint schedule to RestaurantSitDown HTGSETP_SCH_NO_OPTIMUM.",
               "Story Ground Blended Space Type set cooling setpoint schedule to RestaurantSitDown CLGSETP_SCH_NO_OPTIMUM.",
               "Final system type group: occ = nonresidential, area = 22301 ft2, num stories = 1, zones:",
               "--- Building Story 1 ThermalZone",
               "System type is PSZ-AC for Nonresidential building of size 22301 ft^2 and 1 stories, and lookups {\"template\"=>\"90.1-2013\", \"size_category\"=>\"nonres_small\", \"heating_source\"=>\"NaturalGas\", \"cooling_source\"=>\"Electricity\", \"delivery_type\"=>\"air\"}.",
               "--- NaturalGas for main heating",
               "--- Electricity for cooling",
               "Determining which zones are served by the primary vs. secondary HVAC system.",
               "For zone Building Story 1 ThermalZone, the weekly operating hrs 92.1 hrs - average weekly operating hrs 92.1 hrs = 0.0 hrs less than the tolerance of 40 hrs, stopping elimination process.",
               "For zone Building Story 1 ThermalZone, the internal load 109.38 Btu/hr*ft^2 - average internal load 109.38 Btu/hr*ft^2 = 0.0 Btu/hr*ft^2 less than the tolerance of 10 Btu/hr*ft^2, stopping elimination process.",
               "Primary system zones = Building Story 1 ThermalZone.",
               "Adding hot water loop.",
               "New high temperature hot water loop created.",
               "Adding PSZ-AC for Building Story 1 ThermalZone.",
               "Set sizing factors to 1.25 for heating and 1.15 for cooling.",
               "Running simulation /Users/nmoore/github/urbanopt-cli/spec/test_directory/run/two_building_scenario/2/006_create_typical_building_from_model/SR1.",
               "Finished run.",
               "Started applying multizone vav OA sizing.",
               "Finished applying multizone vav OA sizing.",
               "Started applying prototype HVAC assumptions.",
               "For Prototype: Building Story 1 ThermalZone PSZ-AC Fan: 32062cfm; Pressure Rise = 4.09in w.c.",
               "For Building Story 1 ThermalZone PSZ-AC Fan: allowed_hp = 34.91HP; motor eff = 94.1%; total fan eff = 61% based on 32062 cfm.",
               "Finished applying prototype HVAC assumptions.",
               "Started applying HVAC efficiency standards for 90.1-2013 template.",
               "For Building Story 1 ThermalZone PSZ-AC, ERV not required based on 40% OA flow, design supply air flow of 32062cfm, and climate zone .",
               "For Building Story 1 ThermalZone PSZ-AC: Annual occupied hours = 6205 hr/yr, assuming a 0.15 occupancy threshold.  This schedule will be used as the HVAC operation schedule.",
               "For Building Story 1 ThermalZone PSZ-AC: Motorized OA damper is required because the building has 1 stories which is greater than or equal to the minimum of 0 stories for climate zone , and the system OA intake of 0 cfm is greater than or equal to the minimum threshold of 0 cfm.",
               "For Building Story 1 ThermalZone PSZ-AC: Setting motorized OA damper schedule to Building Story 1 ThermalZone PSZ-AC Occ Sch.",
               "For Building Story 1 ThermalZone PSZ-AC: Optimum start is required since design flow rate of 32062 cfm exceeds the limit of 10000 cfm.",
               "For Building Story 1 ThermalZone PSZ-AC: Optimum start control enabled.",
               "For Building Story 1 ThermalZone PSZ-AC: two-stage control is required since cooling capacity of 1282128 Btu/hr exceeds the minimum of 65000 Btu/hr .",
               "For Building Story 1 ThermalZone PSZ-AC: electric heating coil was found, cannot apply DX fan/economizer control.",
               "For Building Story 1 ThermalZone PSZ-AC Fan: motor nameplate = 40HP, motor eff = 94.1%.",
               "For Booster Water Loop Pump: brake hp = 0.0HP, motor nameplate = 0.0HP, motor eff = 100.0%.",
               "For FullServiceRestaurant Kitchen - 90.1-2013 Service Water Loop Water Mains Pressure Driven: brake hp = 0.0HP, motor nameplate = 0.1HP, motor eff = 70.0%.",
               "For Hot Water Loop Pump: brake hp = 0.0HP, motor nameplate = 0.0HP, motor eff = 100.0%.",
               "For 90.1-2013: Building Story 1 ThermalZone PSZ-AC 1spd DX AC Clg Coil: AirCooled All Other Single Package Capacity = 1282kBtu/hr; EER = 9.5",
               "For 90.1-2013: 340gal NaturalGas Water Heater - 340kBtu/hr 0.804 Therm Eff; thermal efficiency = 0.804, skin-loss UA = 23Btu/hr",
               "For 90.1-2013: 6.0gal Electricity Booster Water Heater - 65kBtu/hr 1.0 Therm Eff; thermal efficiency = 1.0, skin-loss UA = 3Btu/hr",
               "Finished applying HVAC efficiency standards.",
               "Added internal mass 'Building Story 1 Space Mass' to space 'Building Story 1 Space'.",
               "Finished adding internal mass"
            ],
            "step_initial_condition" : "The building started with 475 objects.",
            "step_result" : "Success",
            "step_values" : [
               {
                  "name" : "template",
                  "value" : "90.1-2013"
               },
               {
                  "name" : "system_type",
                  "value" : "Inferred"
               },
               {
                  "name" : "hvac_delivery_type",
                  "value" : "Forced Air"
               },
               {
                  "name" : "htg_src",
                  "value" : "NaturalGas"
               },
               {
                  "name" : "clg_src",
                  "value" : "Electricity"
               },
               {
                  "name" : "swh_src",
                  "value" : "Inferred"
               },
               {
                  "name" : "kitchen_makeup",
                  "value" : "Adjacent"
               },
               {
                  "name" : "exterior_lighting_zone",
                  "value" : "3 - All Other Areas"
               },
               {
                  "name" : "add_constructions",
                  "value" : false
               },
               {
                  "name" : "add_space_type_loads",
                  "value" : false
               },
               {
                  "name" : "add_elevators",
                  "value" : false
               },
               {
                  "name" : "add_internal_mass",
                  "value" : true
               },
               {
                  "name" : "add_exterior_lights",
                  "value" : false
               },
               {
                  "name" : "onsite_parking_fraction",
                  "value" : 1
               },
               {
                  "name" : "add_exhaust",
                  "value" : false
               },
               {
                  "name" : "add_swh",
                  "value" : false
               },
               {
                  "name" : "add_thermostat",
                  "value" : true
               },
               {
                  "name" : "add_hvac",
                  "value" : true
               },
               {
                  "name" : "add_refrigeration",
                  "value" : false
               },
               {
                  "name" : "modify_wkdy_op_hrs",
                  "value" : false
               },
               {
                  "name" : "wkdy_op_hrs_start_time",
                  "value" : 8
               },
               {
                  "name" : "wkdy_op_hrs_duration",
                  "value" : 8
               },
               {
                  "name" : "modify_wknd_op_hrs",
                  "value" : false
               },
               {
                  "name" : "wknd_op_hrs_start_time",
                  "value" : 8
               },
               {
                  "name" : "wknd_op_hrs_duration",
                  "value" : 8
               },
               {
                  "name" : "unmet_hours_tolerance",
                  "value" : 1
               },
               {
                  "name" : "remove_objects",
                  "value" : false
               },
               {
                  "name" : "use_upstream_args",
                  "value" : false
               },
               {
                  "name" : "enable_dst",
                  "value" : true
               },
               {
                  "name" : "climate_zone",
                  "value" : "Lookup From Model"
               }
            ],
            "step_warnings" : [
               "[openstudio.standards.AirLoopHVAC] Cannot find economizer limits for 90.1-2013, , assuming no economizer required.",
               "[openstudio.standards.BoilerHotWater] For Boiler, cannot find boiler properties with search criteria {\"template\"=>\"90.1-2013\", \"fuel_type\"=>\"Gas\", \"fluid_type\"=>\"Hot Water\"}, cannot apply efficiency standard."
            ]
         }
      },
      {
         "arguments" : {
            "__SKIP__" : false,
            "airVelocitySchedule" : "Air Velocity Schedule",
            "clothingSchedule" : "Clothing Schedule",
            "comfortWarnings" : true,
            "workEfficiencySchedule" : "Work Efficiency Schedule"
         },
         "measure_dir_name" : "PredictedMeanVote",
         "result" : {
            "completed_at" : "20200413T210401Z",
            "measure_class_name" : "PredictedMeanVote",
            "measure_display_name" : "Predicted Mean Vote",
            "measure_name" : "predicted_mean_vote",
            "measure_taxonomy" : "Reporting.QAQC",
            "measure_type" : "ModelMeasure",
            "measure_uid" : "11cd3144-dac6-4f64-90e4-b8804c6bfc5e",
            "measure_version_id" : "3351a0f8-9ffc-4dbd-a36b-873d8f45851b",
            "measure_version_modified" : "20200228T204851Z",
            "measure_xml_checksum" : "0CA4D54C",
            "started_at" : "20200413T210401Z",
            "stderr" : "",
            "stdout" : "",
            "step_errors" : [],
            "step_files" : [],
            "step_final_condition" : "2 people definitions and 2 people instances were altered.",
            "step_info" : [
               "Editing 'FullServiceRestaurant Dining People Definition'",
               "Editing 'FullServiceRestaurant Kitchen People Definition'",
               "Assigning Schedules for 'FullServiceRestaurant Dining People 1'",
               "Assigning Schedules for 'FullServiceRestaurant Kitchen People 1'",
               "Adding zone output variables for Fanger PMV, Fanger PPD, and ASHRAE 55"
            ],
            "step_initial_condition" : "The building started with 2 people definitions.",
            "step_result" : "Success",
            "step_values" : [
               {
                  "name" : "comfortWarnings",
                  "value" : true
               },
               {
                  "name" : "meanRadiantCalcType",
                  "value" : "ZoneAveraged"
               },
               {
                  "name" : "workEfficiencySchedule",
                  "value" : "{26953aea-c227-4133-8873-e632cd7ec6a3}"
               },
               {
                  "name" : "clothingSchedule",
                  "value" : "{7187f4b9-d9f5-4c31-b50a-665905db11bd}"
               },
               {
                  "name" : "airVelocitySchedule",
                  "value" : "{aa233c3d-4a92-437f-b284-c18dd1a2ac88}"
               },
               {
                  "name" : "reporting_frequency",
                  "value" : "Timestep"
               }
            ],
            "step_warnings" : []
         }
      },
      {
         "arguments" : {
            "__SKIP__" : true,
            "r_value" : 10
         },
         "measure_dir_name" : "IncreaseInsulationRValueForExteriorWalls",
         "result" : {
            "completed_at" : "20200413T210401Z",
            "measure_class_name" : "IncreaseInsulationRValueForExteriorWalls",
            "measure_display_name" : "Increase R-value of Insulation for Exterior Walls to a Specific Value",
            "measure_name" : "increase_insulation_r_value_for_exterior_walls",
            "measure_taxonomy" : "Envelope.Opaque",
            "measure_type" : "ModelMeasure",
            "measure_uid" : "3fdf9c39-d305-449b-a4b5-077166af5a67",
            "measure_version_id" : "b55a41da-39d3-45b1-a9d0-605b292667fe",
            "measure_version_modified" : "20200229T024316Z",
            "measure_xml_checksum" : "0F858D9E",
            "started_at" : "20200413T210401Z",
            "stderr" : "",
            "stdout" : "",
            "step_errors" : [],
            "step_files" : [],
            "step_info" : [],
            "step_result" : "Skip",
            "step_values" : [],
            "step_warnings" : []
         }
      },
      {
         "arguments" : {
            "__SKIP__" : true,
            "elecequip_power_reduction_percent" : 20
         },
         "measure_dir_name" : "ReduceElectricEquipmentLoadsByPercentage",
         "result" : {
            "completed_at" : "20200413T210401Z",
            "measure_class_name" : "ReduceElectricEquipmentLoadsByPercentage",
            "measure_display_name" : "Reduce Electric Equipment Loads by Percentage",
            "measure_name" : "reduce_electric_equipment_loads_by_percentage",
            "measure_taxonomy" : "Equipment.Electric Equipment",
            "measure_type" : "ModelMeasure",
            "measure_uid" : "0902e302-70db-4339-99b0-17f08bc93629",
            "measure_version_id" : "3edc28aa-ab1d-4495-affa-d8e5873431b1",
            "measure_version_modified" : "20200229T024319Z",
            "measure_xml_checksum" : "F9A5B8F0",
            "started_at" : "20200413T210401Z",
            "stderr" : "",
            "stdout" : "",
            "step_errors" : [],
            "step_files" : [],
            "step_info" : [],
            "step_result" : "Skip",
            "step_values" : [],
            "step_warnings" : []
         }
      },
      {
         "arguments" : {
            "__SKIP__" : true,
            "lighting_power_reduction_percent" : 30
         },
         "measure_dir_name" : "ReduceLightingLoadsByPercentage",
         "result" : {
            "completed_at" : "20200413T210401Z",
            "measure_class_name" : "ReduceLightingLoadsByPercentage",
            "measure_display_name" : "Reduce Lighting Loads by Percentage",
            "measure_name" : "reduce_lighting_loads_by_percentage",
            "measure_taxonomy" : "Electric Lighting.Lighting Equipment",
            "measure_type" : "ModelMeasure",
            "measure_uid" : "791f3404-a28b-4a80-ba3f-e15b339e39ea",
            "measure_version_id" : "01e31b73-acc4-47cd-b6cb-8c54238964fc",
            "measure_version_modified" : "20200229T024320Z",
            "measure_xml_checksum" : "293730A7",
            "started_at" : "20200413T210401Z",
            "stderr" : "",
            "stdout" : "",
            "step_errors" : [],
            "step_files" : [],
            "step_info" : [],
            "step_result" : "Skip",
            "step_values" : [],
            "step_warnings" : []
         }
      },
      {
         "arguments" : {
            "feature_id" : "2",
            "feature_name" : "Restaurant 1",
            "feature_type" : "Building"
         },
         "measure_dir_name" : "default_feature_reports",
         "result" : {
            "completed_at" : "20200413T211625Z",
            "measure_class_name" : "DefaultFeatureReports",
            "measure_display_name" : "DefaultFeatureReports",
            "measure_name" : "default_feature_reports",
            "measure_taxonomy" : "Reporting.QAQC",
            "measure_type" : "ReportingMeasure",
            "measure_uid" : "9ee3135a-8070-4408-bfa1-b75fecf9dd4f",
            "measure_version_id" : "dcf043ff-d992-4835-893d-8658a6365eb3",
            "measure_version_modified" : "20200329T155122Z",
            "measure_xml_checksum" : "FB304155",
            "started_at" : "20200413T210441Z",
            "stderr" : "",
            "stdout" : "",
            "step_errors" : [],
            "step_files" : [
               "/Users/nmoore/github/urbanopt-cli/spec/test_directory/run/two_building_scenario/2/011_default_feature_reports/default_feature_reports.json",
               "/Users/nmoore/github/urbanopt-cli/spec/test_directory/run/two_building_scenario/2/011_default_feature_reports/default_feature_reports.csv"
            ],
            "step_final_condition" : "Default Feature Reports generated successfully.",
            "step_info" : [
               "All timeseries: [\"Electricity:Facility\", \"ElectricityProduced:Facility\", \"Gas:Facility\", \"Cooling:Electricity\", \"Heating:Electricity\", \"InteriorLights:Electricity\", \"ExteriorLights:Electricity\", \"InteriorEquipment:Electricity\", \"Fans:Electricity\", \"Pumps:Electricity\", \"WaterSystems:Electricity\", \"Heating:Gas\", \"WaterSystems:Gas\", \"InteriorEquipment:Gas\", \"DistrictCooling:Facility\", \"DistrictHeating:Facility\", \"District Cooling Chilled Water Rate\", \"District Cooling Mass Flow Rate\", \"District Cooling Inlet Temperature\", \"District Cooling Outlet Temperature\", \"District Heating Hot Water Rate\", \"District Heating Mass Flow Rate\", \"District Heating Inlet Temperature\", \"District Heating Outlet Temperature\", \"Zone Thermal Comfort Fanger Model PMV\", \"Zone Thermal Comfort Fanger Model PPD\", \"Net Electric Energy\", \"Electricity:Facility Power\", \"ElectricityProduced:Facility Power\", \"Electricity:Facility Apparent Power\", \"ElectricityProduced:Facility Apparent Power\", \"Net Power\", \"Net Apparent Power\"]",
               "TIMESERIES: Electricity:Facility",
               "KEY VALUES: [\"\"]",
               "!! TIMESERIES NAME: Electricity:Facility AND key_value: ",
               "First timeseries",
               "TIMESERIES: ElectricityProduced:Facility",
               "KEY VALUES: []",
               "!! TIMESERIES NAME: ElectricityProduced:Facility AND key_value: ",
               "Is NOT Initialized",
               "TIMESERIES: Gas:Facility",
               "KEY VALUES: [\"\"]",
               "!! TIMESERIES NAME: Gas:Facility AND key_value: ",
               "Is Initialized",
               "TIMESERIES: Cooling:Electricity",
               "KEY VALUES: [\"\"]",
               "!! TIMESERIES NAME: Cooling:Electricity AND key_value: ",
               "Is Initialized",
               "TIMESERIES: Heating:Electricity",
               "KEY VALUES: [\"\"]",
               "!! TIMESERIES NAME: Heating:Electricity AND key_value: ",
               "Is Initialized",
               "TIMESERIES: InteriorLights:Electricity",
               "KEY VALUES: [\"\"]",
               "!! TIMESERIES NAME: InteriorLights:Electricity AND key_value: ",
               "Is Initialized",
               "TIMESERIES: ExteriorLights:Electricity",
               "KEY VALUES: [\"\"]",
               "!! TIMESERIES NAME: ExteriorLights:Electricity AND key_value: ",
               "Is Initialized",
               "TIMESERIES: InteriorEquipment:Electricity",
               "KEY VALUES: [\"\"]",
               "!! TIMESERIES NAME: InteriorEquipment:Electricity AND key_value: ",
               "Is Initialized",
               "TIMESERIES: Fans:Electricity",
               "KEY VALUES: [\"\"]",
               "!! TIMESERIES NAME: Fans:Electricity AND key_value: ",
               "Is Initialized",
               "TIMESERIES: Pumps:Electricity",
               "KEY VALUES: [\"\"]",
               "!! TIMESERIES NAME: Pumps:Electricity AND key_value: ",
               "Is Initialized",
               "TIMESERIES: WaterSystems:Electricity",
               "KEY VALUES: [\"\"]",
               "!! TIMESERIES NAME: WaterSystems:Electricity AND key_value: ",
               "Is Initialized",
               "TIMESERIES: Heating:Gas",
               "KEY VALUES: [\"\"]",
               "!! TIMESERIES NAME: Heating:Gas AND key_value: ",
               "Is Initialized",
               "TIMESERIES: WaterSystems:Gas",
               "KEY VALUES: [\"\"]",
               "!! TIMESERIES NAME: WaterSystems:Gas AND key_value: ",
               "Is Initialized",
               "TIMESERIES: InteriorEquipment:Gas",
               "KEY VALUES: [\"\"]",
               "!! TIMESERIES NAME: InteriorEquipment:Gas AND key_value: ",
               "Is Initialized",
               "TIMESERIES: DistrictCooling:Facility",
               "KEY VALUES: []",
               "!! TIMESERIES NAME: DistrictCooling:Facility AND key_value: ",
               "Is NOT Initialized",
               "TIMESERIES: DistrictHeating:Facility",
               "KEY VALUES: []",
               "!! TIMESERIES NAME: DistrictHeating:Facility AND key_value: ",
               "Is NOT Initialized",
               "TIMESERIES: District Cooling Chilled Water Rate",
               "KEY VALUES: []",
               "!! TIMESERIES NAME: District Cooling Chilled Water Rate AND key_value: ",
               "Is NOT Initialized",
               "TIMESERIES: District Cooling Mass Flow Rate",
               "KEY VALUES: []",
               "!! TIMESERIES NAME: District Cooling Mass Flow Rate AND key_value: ",
               "Is NOT Initialized",
               "TIMESERIES: District Cooling Inlet Temperature",
               "KEY VALUES: []",
               "!! TIMESERIES NAME: District Cooling Inlet Temperature AND key_value: ",
               "Is NOT Initialized",
               "TIMESERIES: District Cooling Outlet Temperature",
               "KEY VALUES: []",
               "!! TIMESERIES NAME: District Cooling Outlet Temperature AND key_value: ",
               "Is NOT Initialized",
               "TIMESERIES: District Heating Hot Water Rate",
               "KEY VALUES: []",
               "!! TIMESERIES NAME: District Heating Hot Water Rate AND key_value: ",
               "Is NOT Initialized",
               "TIMESERIES: District Heating Mass Flow Rate",
               "KEY VALUES: []",
               "!! TIMESERIES NAME: District Heating Mass Flow Rate AND key_value: ",
               "Is NOT Initialized",
               "TIMESERIES: District Heating Inlet Temperature",
               "KEY VALUES: []",
               "!! TIMESERIES NAME: District Heating Inlet Temperature AND key_value: ",
               "Is NOT Initialized",
               "TIMESERIES: District Heating Outlet Temperature",
               "KEY VALUES: []",
               "!! TIMESERIES NAME: District Heating Outlet Temperature AND key_value: ",
               "Is NOT Initialized",
               "TIMESERIES: Zone Thermal Comfort Fanger Model PMV",
               "KEY VALUES: [\"BUILDING STORY 1 THERMALZONE FULLSERVICERESTAURANT DINING PEOPLE 1\", \"BUILDING STORY 1 THERMALZONE FULLSERVICERESTAURANT KITCHEN PEOPLE 1\"]",
               "!! TIMESERIES NAME: Zone Thermal Comfort Fanger Model PMV AND key_value: BUILDING STORY 1 THERMALZONE FULLSERVICERESTAURANT DINING PEOPLE 1",
               "Is Initialized",
               "SETTING UP NEW ARRAY FOR: Zone Thermal Comfort Fanger Model PMV",
               "!! TIMESERIES NAME: Zone Thermal Comfort Fanger Model PMV AND key_value: BUILDING STORY 1 THERMALZONE FULLSERVICERESTAURANT KITCHEN PEOPLE 1",
               "Is Initialized",
               "timeseries Zone Thermal Comfort Fanger Model PMV: hours out of bounds: 3234.0",
               "TIMESERIES: Zone Thermal Comfort Fanger Model PPD",
               "KEY VALUES: [\"BUILDING STORY 1 THERMALZONE FULLSERVICERESTAURANT DINING PEOPLE 1\", \"BUILDING STORY 1 THERMALZONE FULLSERVICERESTAURANT KITCHEN PEOPLE 1\"]",
               "!! TIMESERIES NAME: Zone Thermal Comfort Fanger Model PPD AND key_value: BUILDING STORY 1 THERMALZONE FULLSERVICERESTAURANT DINING PEOPLE 1",
               "Is Initialized",
               "SETTING UP NEW ARRAY FOR: Zone Thermal Comfort Fanger Model PPD",
               "!! TIMESERIES NAME: Zone Thermal Comfort Fanger Model PPD AND key_value: BUILDING STORY 1 THERMALZONE FULLSERVICERESTAURANT KITCHEN PEOPLE 1",
               "Is Initialized",
               "timeseries Zone Thermal Comfort Fanger Model PPD: hours out of bounds: 193.0",
               "TIMESERIES: Net Electric Energy",
               "KEY VALUES: []",
               "!! TIMESERIES NAME: Net Electric Energy AND key_value: ",
               "Is NOT Initialized",
               "TIMESERIES: Electricity:Facility Power",
               "KEY VALUES: []",
               "!! TIMESERIES NAME: Electricity:Facility Power AND key_value: ",
               "Is NOT Initialized",
               "timeseries_name: Electricity:Facility Power, key: Electricity:Facility",
               "TIMESERIES: ElectricityProduced:Facility Power",
               "KEY VALUES: []",
               "!! TIMESERIES NAME: ElectricityProduced:Facility Power AND key_value: ",
               "Is NOT Initialized",
               "timeseries_name: ElectricityProduced:Facility Power, key: ElectricityProduced:Facility",
               "TIMESERIES: Electricity:Facility Apparent Power",
               "KEY VALUES: []",
               "!! TIMESERIES NAME: Electricity:Facility Apparent Power AND key_value: ",
               "Is NOT Initialized",
               "timeseries_name: Electricity:Facility Apparent Power, key: Electricity:Facility",
               "TIMESERIES: ElectricityProduced:Facility Apparent Power",
               "KEY VALUES: []",
               "!! TIMESERIES NAME: ElectricityProduced:Facility Apparent Power AND key_value: ",
               "Is NOT Initialized",
               "timeseries_name: ElectricityProduced:Facility Apparent Power, key: ElectricityProduced:Facility",
               "TIMESERIES: Net Power",
               "KEY VALUES: []",
               "!! TIMESERIES NAME: Net Power AND key_value: ",
               "Is NOT Initialized",
               "Power calc",
               "TIMESERIES: Net Apparent Power",
               "KEY VALUES: []",
               "!! TIMESERIES NAME: Net Apparent Power AND key_value: ",
               "Is NOT Initialized",
               "new final_timeseries_names size: 36"
            ],
            "step_result" : "Success",
            "step_values" : [
               {
                  "name" : "feature_id",
                  "value" : "2"
               },
               {
                  "name" : "feature_name",
                  "value" : "Restaurant 1"
               },
               {
                  "name" : "feature_type",
                  "value" : "Building"
               },
               {
                  "name" : "reporting_frequency",
                  "value" : "Timestep"
               }
            ],
            "step_warnings" : [
               "Query failed for Life-Cycle Cost Report and TableName='Present Value for Recurring, Nonrecurring and Energy Costs (Before Tax)' AND RowName='LCC_MAT - BUILDING - LIFE CYCLE COSTS' AND ColumnName='Cost'"
            ]
         }
      }
   ],
   "updated_at" : "20200413T211633Z",
   "weather_file" : null
}
