Program Version,EnergyPlus, Version 9.2.0-921312fa1d, YMD=2020.04.13 15:04
! This file shows details about the branches, nodes, and other
! elements of the flow connections.
! This file is intended for use in "debugging" potential problems
! that may also be detected by the program, but may be more easily
! identified by "eye".
! This file is also intended to support software which draws a
! schematic diagram of the HVAC system.
! ===============================================================
! #Nodes,<Number of Unique Nodes>
 #Nodes,190
! <Node>,<NodeNumber>,<Node Name>,<Node Fluid Type>,<# Times Node Referenced After Definition>
 Node,1,BUILDING STORY 1 THERMALZONE VAV TERMINAL OUTLET AIR NODE,Air,4
 Node,2,BUILDING STORY 1 THERMALZONE RETURN AIR NODE,Air,2
 Node,3,BUILDING STORY 2 THERMALZONE VAV TERMINAL OUTLET AIR NODE,Air,4
 Node,4,BUILDING STORY 2 THERMALZONE RETURN AIR NODE,Air,2
 Node,5,BUILDING STORY 3 THERMALZONE VAV TERMINAL OUTLET AIR NODE,Air,4
 Node,6,BUILDING STORY 3 THERMALZONE RETURN AIR NODE,Air,2
 Node,7,BUILDING STORY 4 THERMALZONE VAV TERMINAL OUTLET AIR NODE,Air,4
 Node,8,BUILDING STORY 4 THERMALZONE RETURN AIR NODE,Air,2
 Node,9,1 ZONE VAV SUPPLY OUTLET NODE,Air,10
 Node,10,1 ZONE VAV DEMAND INLET NODE,Air,3
 Node,11,1 ZONE VAV 1 SUPPLY OUTLET NODE,Air,10
 Node,12,1 ZONE VAV 1 DEMAND INLET NODE,Air,3
 Node,13,1 ZONE VAV 2 SUPPLY OUTLET NODE,Air,10
 Node,14,1 ZONE VAV 2 DEMAND INLET NODE,Air,3
 Node,15,1 ZONE VAV 3 SUPPLY OUTLET NODE,Air,10
 Node,16,1 ZONE VAV 3 DEMAND INLET NODE,Air,3
 Node,17,1 ZONE VAV SUPPLY INLET NODE,Air,3
 Node,18,1 ZONE VAV MIXED AIR NODE,Air,5
 Node,19,1 ZONE VAV CLG COIL OUTLET AIR NODE,Air,5
 Node,20,1 ZONE VAV MAIN HTG COIL OUTLET AIR NODE,Air,8
 Node,21,1 ZONE VAV 1 SUPPLY INLET NODE,Air,3
 Node,22,1 ZONE VAV 1 MIXED AIR NODE,Air,5
 Node,23,1 ZONE VAV 1 CLG COIL OUTLET AIR NODE,Air,5
 Node,24,1 ZONE VAV 1 MAIN HTG COIL OUTLET AIR NODE,Air,8
 Node,25,1 ZONE VAV 2 SUPPLY INLET NODE,Air,3
 Node,26,1 ZONE VAV 2 MIXED AIR NODE,Air,5
 Node,27,1 ZONE VAV 2 CLG COIL OUTLET AIR NODE,Air,5
 Node,28,1 ZONE VAV 2 MAIN HTG COIL OUTLET AIR NODE,Air,8
 Node,29,1 ZONE VAV 3 SUPPLY INLET NODE,Air,3
 Node,30,1 ZONE VAV 3 MIXED AIR NODE,Air,5
 Node,31,1 ZONE VAV 3 CLG COIL OUTLET AIR NODE,Air,5
 Node,32,1 ZONE VAV 3 MAIN HTG COIL OUTLET AIR NODE,Air,8
 Node,33,CHILLED WATER LOOP SUPPLY INLET NODE,Water,2
 Node,34,CHILLED WATER LOOP PRIMARY PUMP OUTLET WATER NODE,Water,1
 Node,35,90.1-2013 WATERCOOLED  ROTARY SCREW CHILLER 0 SUPPLY INLET WATER NODE,Water,1
 Node,36,90.1-2013 WATERCOOLED  ROTARY SCREW CHILLER 0 SUPPLY OUTLET WATER NODE,Water,1
 Node,37,CHILLED WATER LOOP CHILLER BYPASS INLET WATER NODE,Water,1
 Node,38,CHILLED WATER LOOP CHILLER BYPASS OUTLET WATER NODE,Water,1
 Node,39,CHILLED WATER LOOP SUPPLY OUTLET INLET WATER NODE,Water,1
 Node,40,CHILLED WATER LOOP SUPPLY OUTLET NODE,Water,4
 Node,41,CHILLED WATER LOOP DEMAND INLET NODE,Water,2
 Node,42,CHILLED WATER LOOP SECONDARY PUMP INLET WATER NODE,Water,3
 Node,43,CHILLED WATER LOOP SECONDARY PUMP OUTLET WATER NODE,Water,1
 Node,44,CHILLED WATER LOOP COIL BYPASS INLET WATER NODE,Water,1
 Node,45,CHILLED WATER LOOP COIL BYPASS OUTLET WATER NODE,Water,1
 Node,46,1 ZONE VAV CLG COIL INLET WATER NODE,Water,2
 Node,47,1 ZONE VAV CLG COIL OUTLET WATER NODE,Water,1
 Node,48,1 ZONE VAV 1 CLG COIL INLET WATER NODE,Water,2
 Node,49,1 ZONE VAV 1 CLG COIL OUTLET WATER NODE,Water,1
 Node,50,1 ZONE VAV 2 CLG COIL INLET WATER NODE,Water,2
 Node,51,1 ZONE VAV 2 CLG COIL OUTLET WATER NODE,Water,1
 Node,52,1 ZONE VAV 3 CLG COIL INLET WATER NODE,Water,2
 Node,53,1 ZONE VAV 3 CLG COIL OUTLET WATER NODE,Water,1
 Node,54,CHILLED WATER LOOP DEMAND BYPASS PIPE INLET NODE,Water,1
 Node,55,CHILLED WATER LOOP DEMAND BYPASS PIPE OUTLET NODE,Water,1
 Node,56,CHILLED WATER LOOP DEMAND OUTLET INLET WATER NODE,Water,1
 Node,57,CHILLED WATER LOOP DEMAND OUTLET NODE,Water,2
 Node,58,CONDENSER WATER LOOP SUPPLY INLET NODE,Water,2
 Node,59,CONDENSER WATER LOOP CONSTANT PUMP OUTLET WATER NODE,Water,1
 Node,60,PROPELLER OR AXIAL VARIABLE SPEED FAN OPEN COOLING TOWER INLET WATER NODE,Water,1
 Node,61,PROPELLER OR AXIAL VARIABLE SPEED FAN OPEN COOLING TOWER OUTLET WATER NODE,Water,1
 Node,62,CONDENSER WATER LOOP COOLING TOWER BYPASS INLET WATER NODE,Water,1
 Node,63,CONDENSER WATER LOOP COOLING TOWER BYPASS OUTLET WATER NODE,Water,1
 Node,64,CONDENSER WATER LOOP SUPPLY OUTLET INLET WATER NODE,Water,1
 Node,65,CONDENSER WATER LOOP SUPPLY OUTLET NODE,Water,4
 Node,66,CONDENSER WATER LOOP DEMAND INLET NODE,Water,2
 Node,67,CONDENSER WATER LOOP DEMAND INLET OUTLET WATER NODE,Water,1
 Node,68,CONDENSER WATER LOOP CHILLER BYPASS INLET WATER NODE,Water,1
 Node,69,CONDENSER WATER LOOP CHILLER BYPASS OUTLET WATER NODE,Water,1
 Node,70,90.1-2013 WATERCOOLED  ROTARY SCREW CHILLER 0 DEMAND INLET WATER NODE,Water,1
 Node,71,90.1-2013 WATERCOOLED  ROTARY SCREW CHILLER 0 DEMAND OUTLET WATER NODE,Water,1
 Node,72,CONDENSER WATER LOOP DEMAND BYPASS PIPE INLET NODE,Water,1
 Node,73,CONDENSER WATER LOOP DEMAND BYPASS PIPE OUTLET NODE,Water,1
 Node,74,CONDENSER WATER LOOP DEMAND OUTLET INLET WATER NODE,Water,1
 Node,75,CONDENSER WATER LOOP DEMAND OUTLET NODE,Water,2
 Node,76,FULLSERVICERESTAURANT KITCHEN - 90.1-2013 SERVICE WATER BOOSTER LOOP SUPPLY INLET NODE,Water,2
 Node,77,BOOSTER WATER LOOP PUMP INLET WATER NODE,Water,3
 Node,78,BOOSTER WATER LOOP PUMP OUTLET WATER NODE,Water,1
 Node,79,6.0GAL ELECTRICITY BOOSTER WATER HEATER - 1100KBTU/HR SUPPLY INLET WATER NODE,Water,1
 Node,80,6.0GAL ELECTRICITY BOOSTER WATER HEATER - 1100KBTU/HR SUPPLY OUTLET WATER NODE,Water,1
 Node,81,PIPE ADIABATIC 5 INLET WATER NODE,Water,1
 Node,82,PIPE ADIABATIC 5 OUTLET WATER NODE,Water,1
 Node,83,PIPE ADIABATIC 7 INLET WATER NODE,Water,1
 Node,84,FULLSERVICERESTAURANT KITCHEN - 90.1-2013 SERVICE WATER BOOSTER LOOP SUPPLY OUTLET NODE,Water,5
 Node,85,FULLSERVICERESTAURANT KITCHEN - 90.1-2013 SERVICE WATER BOOSTER LOOP DEMAND INLET NODE,Water,2
 Node,86,PIPE ADIABATIC 8 OUTLET WATER NODE,Water,1
 Node,87,PIPE ADIABATIC 6 INLET WATER NODE,Water,1
 Node,88,PIPE ADIABATIC 6 OUTLET WATER NODE,Water,1
 Node,89,BOOSTER FULLSERVICERESTAURANT KITCHEN - 90.1-2013 WUC 90.91GPM AT 180F INLET WATER NODE,Water,1
 Node,90,BOOSTER FULLSERVICERESTAURANT KITCHEN - 90.1-2013 WUC 90.91GPM AT 180F OUTLET WATER NODE,Water,1
 Node,91,FULLSERVICERESTAURANT KITCHEN - 90.1-2013 SERVICE WATER BOOSTER LOOP DEMAND BYPASS PIPE INLET NODE,Water,1
 Node,92,FULLSERVICERESTAURANT KITCHEN - 90.1-2013 SERVICE WATER BOOSTER LOOP DEMAND BYPASS PIPE OUTLET NODE,Water,1
 Node,93,PIPE ADIABATIC 9 INLET WATER NODE,Water,1
 Node,94,FULLSERVICERESTAURANT KITCHEN - 90.1-2013 SERVICE WATER BOOSTER LOOP DEMAND OUTLET NODE,Water,2
 Node,95,FULLSERVICERESTAURANT KITCHEN - 90.1-2013 SERVICE WATER LOOP SUPPLY INLET NODE,Water,2
 Node,96,FULLSERVICERESTAURANT KITCHEN - 90.1-2013 SERVICE WATER LOOP WATER MAINS PRESSURE DRIVEN OUTLET WATER NODE,Water,1
 Node,97,5727GAL NATURALGAS WATER HEATER - 5727KBTU/HR SUPPLY INLET WATER NODE,Water,1
 Node,98,5727GAL NATURALGAS WATER HEATER - 5727KBTU/HR SUPPLY OUTLET WATER NODE,Water,1
 Node,99,PIPE ADIABATIC 1 INLET WATER NODE,Water,1
 Node,100,PIPE ADIABATIC 1 OUTLET WATER NODE,Water,1
 Node,101,PIPE ADIABATIC 3 INLET WATER NODE,Water,1
 Node,102,FULLSERVICERESTAURANT KITCHEN - 90.1-2013 SERVICE WATER LOOP SUPPLY OUTLET NODE,Water,4
 Node,103,FULLSERVICERESTAURANT KITCHEN - 90.1-2013 SERVICE WATER LOOP DEMAND INLET NODE,Water,2
 Node,104,FULLSERVICERESTAURANT KITCHEN - 90.1-2013 SERVICE WATER LOOP PIPE 20.0FT OUTLET WATER NODE,Water,1
 Node,105,PIPE ADIABATIC 2 INLET WATER NODE,Water,1
 Node,106,PIPE ADIABATIC 2 OUTLET WATER NODE,Water,1
 Node,107,FULLSERVICERESTAURANT KITCHEN - 90.1-2013 WUC 60.61GPM AT 140F INLET WATER NODE,Water,1
 Node,108,FULLSERVICERESTAURANT KITCHEN - 90.1-2013 WUC 60.61GPM AT 140F OUTLET WATER NODE,Water,1
 Node,109,HX FOR BOOSTER WATER HEATING DEMAND INLET WATER NODE,Water,1
 Node,110,MAINS WATER MAKEUP FOR SWH BOOSTER INLET WATER NODE,Water,3
 Node,111,MAINS WATER MAKEUP FOR SWH BOOSTER OUTLET WATER NODE,Water,1
 Node,112,FULLSERVICERESTAURANT KITCHEN - 90.1-2013 SERVICE WATER LOOP DEMAND BYPASS PIPE INLET NODE,Water,1
 Node,113,FULLSERVICERESTAURANT KITCHEN - 90.1-2013 SERVICE WATER LOOP DEMAND BYPASS PIPE OUTLET NODE,Water,1
 Node,114,PIPE ADIABATIC 4 INLET WATER NODE,Water,1
 Node,115,FULLSERVICERESTAURANT KITCHEN - 90.1-2013 SERVICE WATER LOOP DEMAND OUTLET NODE,Water,2
 Node,116,HOT WATER LOOP SUPPLY INLET NODE,Water,2
 Node,117,HOT WATER LOOP PUMP OUTLET WATER NODE,Water,1
 Node,118,BOILER INLET WATER NODE,Water,1
 Node,119,BOILER OUTLET WATER NODE,Water,1
 Node,120,HOT WATER LOOP SUPPLY EQUIPMENT BYPASS INLET WATER NODE,Water,1
 Node,121,HOT WATER LOOP SUPPLY EQUIPMENT BYPASS OUTLET WATER NODE,Water,1
 Node,122,HOT WATER LOOP SUPPLY OUTLET INLET WATER NODE,Water,1
 Node,123,HOT WATER LOOP SUPPLY OUTLET NODE,Water,4
 Node,124,HOT WATER LOOP DEMAND INLET NODE,Water,2
 Node,125,HOT WATER LOOP DEMAND INLET OUTLET WATER NODE,Water,1
 Node,126,HOT WATER LOOP COIL BYPASS INLET WATER NODE,Water,1
 Node,127,HOT WATER LOOP COIL BYPASS OUTLET WATER NODE,Water,1
 Node,128,1 ZONE VAV MAIN HTG COIL INLET WATER NODE,Water,2
 Node,129,1 ZONE VAV MAIN HTG COIL OUTLET WATER NODE,Water,1
 Node,130,BUILDING STORY 1 THERMALZONE REHEAT COIL INLET WATER NODE,Water,1
 Node,131,BUILDING STORY 1 THERMALZONE REHEAT COIL OUTLET WATER NODE,Water,1
 Node,132,1 ZONE VAV 1 MAIN HTG COIL INLET WATER NODE,Water,2
 Node,133,1 ZONE VAV 1 MAIN HTG COIL OUTLET WATER NODE,Water,1
 Node,134,BUILDING STORY 2 THERMALZONE REHEAT COIL INLET WATER NODE,Water,1
 Node,135,BUILDING STORY 2 THERMALZONE REHEAT COIL OUTLET WATER NODE,Water,1
 Node,136,1 ZONE VAV 2 MAIN HTG COIL INLET WATER NODE,Water,2
 Node,137,1 ZONE VAV 2 MAIN HTG COIL OUTLET WATER NODE,Water,1
 Node,138,BUILDING STORY 3 THERMALZONE REHEAT COIL INLET WATER NODE,Water,1
 Node,139,BUILDING STORY 3 THERMALZONE REHEAT COIL OUTLET WATER NODE,Water,1
 Node,140,1 ZONE VAV 3 MAIN HTG COIL INLET WATER NODE,Water,2
 Node,141,1 ZONE VAV 3 MAIN HTG COIL OUTLET WATER NODE,Water,1
 Node,142,BUILDING STORY 4 THERMALZONE REHEAT COIL INLET WATER NODE,Water,1
 Node,143,BUILDING STORY 4 THERMALZONE REHEAT COIL OUTLET WATER NODE,Water,1
 Node,144,HOT WATER LOOP DEMAND BYPASS PIPE INLET NODE,Water,1
 Node,145,HOT WATER LOOP DEMAND BYPASS PIPE OUTLET NODE,Water,1
 Node,146,HOT WATER LOOP DEMAND OUTLET INLET WATER NODE,Water,1
 Node,147,HOT WATER LOOP DEMAND OUTLET NODE,Water,2
 Node,148,OFFICE SHARED SERVICE WATER LOOP SUPPLY INLET NODE,Water,2
 Node,149,OFFICE SHARED SERVICE WATER LOOP CIRCULATOR PUMP OUTLET WATER NODE,Water,1
 Node,150,113GAL ELECTRICITY WATER HEATER - 113KBTU/HR SUPPLY INLET WATER NODE,Water,1
 Node,151,113GAL ELECTRICITY WATER HEATER - 113KBTU/HR SUPPLY OUTLET WATER NODE,Water,1
 Node,152,PIPE ADIABATIC 10 INLET WATER NODE,Water,1
 Node,153,PIPE ADIABATIC 10 OUTLET WATER NODE,Water,1
 Node,154,PIPE ADIABATIC 12 INLET WATER NODE,Water,1
 Node,155,OFFICE SHARED SERVICE WATER LOOP SUPPLY OUTLET NODE,Water,4
 Node,156,OFFICE SHARED SERVICE WATER LOOP DEMAND INLET NODE,Water,2
 Node,157,OFFICE SHARED SERVICE WATER LOOP PIPE 887.2854201472547FT OUTLET WATER NODE,Water,1
 Node,158,PIPE ADIABATIC 11 INLET WATER NODE,Water,1
 Node,159,PIPE ADIABATIC 11 OUTLET WATER NODE,Water,1
 Node,160,OFFICE WHOLEBUILDING - LG OFFICE - 90.1-2013 WUC 3.15GPM AT 140F INLET WATER NODE,Water,1
 Node,161,OFFICE WHOLEBUILDING - LG OFFICE - 90.1-2013 WUC 3.15GPM AT 140F OUTLET WATER NODE,Water,1
 Node,162,OFFICE SHARED SERVICE WATER LOOP DEMAND BYPASS PIPE INLET NODE,Water,1
 Node,163,OFFICE SHARED SERVICE WATER LOOP DEMAND BYPASS PIPE OUTLET NODE,Water,1
 Node,164,PIPE ADIABATIC 13 INLET WATER NODE,Water,1
 Node,165,OFFICE SHARED SERVICE WATER LOOP DEMAND OUTLET NODE,Water,2
 Node,166,BUILDING STORY 1 THERMALZONE ZONE AIR NODE,Air,0
 Node,167,BUILDING STORY 2 THERMALZONE ZONE AIR NODE,Air,0
 Node,168,BUILDING STORY 3 THERMALZONE ZONE AIR NODE,Air,0
 Node,169,BUILDING STORY 4 THERMALZONE ZONE AIR NODE,Air,0
 Node,170,1 ZONE VAV DEMAND OUTLET NODE,Air,2
 Node,171,1 ZONE VAV 1 DEMAND OUTLET NODE,Air,2
 Node,172,1 ZONE VAV 2 DEMAND OUTLET NODE,Air,2
 Node,173,1 ZONE VAV 3 DEMAND OUTLET NODE,Air,2
 Node,174,1 ZONE VAV OUTDOOR AIR NODE,Air,2
 Node,175,1 ZONE VAV 1 OUTDOOR AIR NODE,Air,2
 Node,176,1 ZONE VAV 2 OUTDOOR AIR NODE,Air,2
 Node,177,1 ZONE VAV 3 OUTDOOR AIR NODE,Air,2
 Node,178,MODEL OUTDOOR AIR NODE,Air,0
 Node,179,BUILDING STORY 1 THERMALZONE VAV TERMINAL INLET AIR NODE,Air,1
 Node,180,BUILDING STORY 2 THERMALZONE VAV TERMINAL INLET AIR NODE,Air,1
 Node,181,BUILDING STORY 3 THERMALZONE VAV TERMINAL INLET AIR NODE,Air,1
 Node,182,BUILDING STORY 4 THERMALZONE VAV TERMINAL INLET AIR NODE,Air,1
 Node,183,BUILDING STORY 1 THERMALZONE VAV TERMINAL DAMPER OUTLET,Air,1
 Node,184,BUILDING STORY 2 THERMALZONE VAV TERMINAL DAMPER OUTLET,Air,1
 Node,185,BUILDING STORY 3 THERMALZONE VAV TERMINAL DAMPER OUTLET,Air,1
 Node,186,BUILDING STORY 4 THERMALZONE VAV TERMINAL DAMPER OUTLET,Air,1
 Node,187,1 ZONE VAV RELIEF AIR NODE,Air,1
 Node,188,1 ZONE VAV 1 RELIEF AIR NODE,Air,1
 Node,189,1 ZONE VAV 2 RELIEF AIR NODE,Air,1
 Node,190,1 ZONE VAV 3 RELIEF AIR NODE,Air,1
! ===============================================================
! Suspicious nodes have 0 references.  It is normal for some nodes, however.
! Listing nodes with 0 references (culled from previous list):
! <Suspicious Node>,<NodeNumber>,<Node Name>,<Node Fluid Type>,<# Times Node Referenced After Definition>
 Suspicious Node,166,BUILDING STORY 1 THERMALZONE ZONE AIR NODE,Air,0
 Suspicious Node,167,BUILDING STORY 2 THERMALZONE ZONE AIR NODE,Air,0
 Suspicious Node,168,BUILDING STORY 3 THERMALZONE ZONE AIR NODE,Air,0
 Suspicious Node,169,BUILDING STORY 4 THERMALZONE ZONE AIR NODE,Air,0
 Suspicious Node,178,MODEL OUTDOOR AIR NODE,Air,0
! ===============================================================
! <#Branch Lists>,<Number of Branch Lists>
 #Branch Lists,16
! <Branch List>,<Branch List Count>,<Branch List Name>,<Loop Name>,<Loop Type>,<Number of Branches>
! <Branch>,<Branch Count>,<Branch Name>,<Loop Name>,<Loop Type>,<Branch Inlet Node Name>,<Branch Outlet Node Name>
 Branch List,1,1 ZONE VAV SUPPLY BRANCHES,1 ZONE VAV,Air,1
   Branch,1,1 ZONE VAV MAIN BRANCH,1 ZONE VAV,Air,1 ZONE VAV SUPPLY INLET NODE,1 ZONE VAV SUPPLY OUTLET NODE
 Branch List,2,1 ZONE VAV 1 SUPPLY BRANCHES,1 ZONE VAV 1,Air,1
   Branch,1,1 ZONE VAV 1 MAIN BRANCH,1 ZONE VAV 1,Air,1 ZONE VAV 1 SUPPLY INLET NODE,1 ZONE VAV 1 SUPPLY OUTLET NODE
 Branch List,3,1 ZONE VAV 2 SUPPLY BRANCHES,1 ZONE VAV 2,Air,1
   Branch,1,1 ZONE VAV 2 MAIN BRANCH,1 ZONE VAV 2,Air,1 ZONE VAV 2 SUPPLY INLET NODE,1 ZONE VAV 2 SUPPLY OUTLET NODE
 Branch List,4,1 ZONE VAV 3 SUPPLY BRANCHES,1 ZONE VAV 3,Air,1
   Branch,1,1 ZONE VAV 3 MAIN BRANCH,1 ZONE VAV 3,Air,1 ZONE VAV 3 SUPPLY INLET NODE,1 ZONE VAV 3 SUPPLY OUTLET NODE
 Branch List,5,CHILLED WATER LOOP SUPPLY BRANCHES,CHILLED WATER LOOP,Plant Supply,4
   Branch,1,CHILLED WATER LOOP SUPPLY INLET BRANCH,CHILLED WATER LOOP,Plant Supply,CHILLED WATER LOOP SUPPLY INLET NODE,CHILLED WATER LOOP PRIMARY PUMP OUTLET WATER NODE
   Branch,2,CHILLED WATER LOOP SUPPLY BRANCH 1,CHILLED WATER LOOP,Plant Supply,90.1-2013 WATERCOOLED  ROTARY SCREW CHILLER 0 SUPPLY INLET WATER NODE,90.1-2013 WATERCOOLED  ROTARY SCREW CHILLER 0 SUPPLY OUTLET WATER NODE
   Branch,3,CHILLED WATER LOOP SUPPLY BRANCH 2,CHILLED WATER LOOP,Plant Supply,CHILLED WATER LOOP CHILLER BYPASS INLET WATER NODE,CHILLED WATER LOOP CHILLER BYPASS OUTLET WATER NODE
   Branch,4,CHILLED WATER LOOP SUPPLY OUTLET BRANCH,CHILLED WATER LOOP,Plant Supply,CHILLED WATER LOOP SUPPLY OUTLET INLET WATER NODE,CHILLED WATER LOOP SUPPLY OUTLET NODE
 Branch List,6,CHILLED WATER LOOP DEMAND BRANCHES,CHILLED WATER LOOP,Plant Demand,8
   Branch,1,CHILLED WATER LOOP DEMAND INLET BRANCH,CHILLED WATER LOOP,Plant Demand,CHILLED WATER LOOP DEMAND INLET NODE,CHILLED WATER LOOP SECONDARY PUMP OUTLET WATER NODE
   Branch,2,CHILLED WATER LOOP DEMAND BRANCH 1,CHILLED WATER LOOP,Plant Demand,CHILLED WATER LOOP COIL BYPASS INLET WATER NODE,CHILLED WATER LOOP COIL BYPASS OUTLET WATER NODE
   Branch,3,CHILLED WATER LOOP DEMAND BRANCH 2,CHILLED WATER LOOP,Plant Demand,1 ZONE VAV CLG COIL INLET WATER NODE,1 ZONE VAV CLG COIL OUTLET WATER NODE
   Branch,4,CHILLED WATER LOOP DEMAND BRANCH 3,CHILLED WATER LOOP,Plant Demand,1 ZONE VAV 1 CLG COIL INLET WATER NODE,1 ZONE VAV 1 CLG COIL OUTLET WATER NODE
   Branch,5,CHILLED WATER LOOP DEMAND BRANCH 4,CHILLED WATER LOOP,Plant Demand,1 ZONE VAV 2 CLG COIL INLET WATER NODE,1 ZONE VAV 2 CLG COIL OUTLET WATER NODE
   Branch,6,CHILLED WATER LOOP DEMAND BRANCH 5,CHILLED WATER LOOP,Plant Demand,1 ZONE VAV 3 CLG COIL INLET WATER NODE,1 ZONE VAV 3 CLG COIL OUTLET WATER NODE
   Branch,7,CHILLED WATER LOOP DEMAND BYPASS BRANCH,CHILLED WATER LOOP,Plant Demand,CHILLED WATER LOOP DEMAND BYPASS PIPE INLET NODE,CHILLED WATER LOOP DEMAND BYPASS PIPE OUTLET NODE
   Branch,8,CHILLED WATER LOOP DEMAND OUTLET BRANCH,CHILLED WATER LOOP,Plant Demand,CHILLED WATER LOOP DEMAND OUTLET INLET WATER NODE,CHILLED WATER LOOP DEMAND OUTLET NODE
 Branch List,7,CONDENSER WATER LOOP SUPPLY BRANCHES,CONDENSER WATER LOOP,Plant Supply,4
   Branch,1,CONDENSER WATER LOOP SUPPLY INLET BRANCH,CONDENSER WATER LOOP,Plant Supply,CONDENSER WATER LOOP SUPPLY INLET NODE,CONDENSER WATER LOOP CONSTANT PUMP OUTLET WATER NODE
   Branch,2,CONDENSER WATER LOOP SUPPLY BRANCH 1,CONDENSER WATER LOOP,Plant Supply,PROPELLER OR AXIAL VARIABLE SPEED FAN OPEN COOLING TOWER INLET WATER NODE,PROPELLER OR AXIAL VARIABLE SPEED FAN OPEN COOLING TOWER OUTLET WATER NODE
   Branch,3,CONDENSER WATER LOOP SUPPLY BRANCH 2,CONDENSER WATER LOOP,Plant Supply,CONDENSER WATER LOOP COOLING TOWER BYPASS INLET WATER NODE,CONDENSER WATER LOOP COOLING TOWER BYPASS OUTLET WATER NODE
   Branch,4,CONDENSER WATER LOOP SUPPLY OUTLET BRANCH,CONDENSER WATER LOOP,Plant Supply,CONDENSER WATER LOOP SUPPLY OUTLET INLET WATER NODE,CONDENSER WATER LOOP SUPPLY OUTLET NODE
 Branch List,8,CONDENSER WATER LOOP DEMAND BRANCHES,CONDENSER WATER LOOP,Plant Demand,5
   Branch,1,CONDENSER WATER LOOP DEMAND INLET BRANCH,CONDENSER WATER LOOP,Plant Demand,CONDENSER WATER LOOP DEMAND INLET NODE,CONDENSER WATER LOOP DEMAND INLET OUTLET WATER NODE
   Branch,2,CONDENSER WATER LOOP DEMAND BRANCH 1,CONDENSER WATER LOOP,Plant Demand,CONDENSER WATER LOOP CHILLER BYPASS INLET WATER NODE,CONDENSER WATER LOOP CHILLER BYPASS OUTLET WATER NODE
   Branch,3,CONDENSER WATER LOOP DEMAND BRANCH 2,CONDENSER WATER LOOP,Plant Demand,90.1-2013 WATERCOOLED  ROTARY SCREW CHILLER 0 DEMAND INLET WATER NODE,90.1-2013 WATERCOOLED  ROTARY SCREW CHILLER 0 DEMAND OUTLET WATER NODE
   Branch,4,CONDENSER WATER LOOP DEMAND BYPASS BRANCH,CONDENSER WATER LOOP,Plant Demand,CONDENSER WATER LOOP DEMAND BYPASS PIPE INLET NODE,CONDENSER WATER LOOP DEMAND BYPASS PIPE OUTLET NODE
   Branch,5,CONDENSER WATER LOOP DEMAND OUTLET BRANCH,CONDENSER WATER LOOP,Plant Demand,CONDENSER WATER LOOP DEMAND OUTLET INLET WATER NODE,CONDENSER WATER LOOP DEMAND OUTLET NODE
 Branch List,9,FULLSERVICERESTAURANT KITCHEN - 90.1-2013 SERVICE WATER BOOSTER LOOP SUPPLY BRANCHES,FULLSERVICERESTAURANT KITCHEN - 90.1-2013 SERVICE WATER BOOSTER LOOP,Plant Supply,4
   Branch,1,FULLSERVICERESTAURANT KITCHEN - 90.1-2013 SERVICE WATER BOOSTER LOOP SUPPLY INLET BRANCH,FULLSERVICERESTAURANT KITCHEN - 90.1-2013 SERVICE WATER BOOSTER LOOP,Plant Supply,FULLSERVICERESTAURANT KITCHEN - 90.1-2013 SERVICE WATER BOOSTER LOOP SUPPLY INLET NODE,BOOSTER WATER LOOP PUMP OUTLET WATER NODE
   Branch,2,FULLSERVICERESTAURANT KITCHEN - 90.1-2013 SERVICE WATER BOOSTER LOOP SUPPLY BRANCH 1,FULLSERVICERESTAURANT KITCHEN - 90.1-2013 SERVICE WATER BOOSTER LOOP,Plant Supply,6.0GAL ELECTRICITY BOOSTER WATER HEATER - 1100KBTU/HR SUPPLY INLET WATER NODE,6.0GAL ELECTRICITY BOOSTER WATER HEATER - 1100KBTU/HR SUPPLY OUTLET WATER NODE
   Branch,3,FULLSERVICERESTAURANT KITCHEN - 90.1-2013 SERVICE WATER BOOSTER LOOP SUPPLY BRANCH 2,FULLSERVICERESTAURANT KITCHEN - 90.1-2013 SERVICE WATER BOOSTER LOOP,Plant Supply,PIPE ADIABATIC 5 INLET WATER NODE,PIPE ADIABATIC 5 OUTLET WATER NODE
   Branch,4,FULLSERVICERESTAURANT KITCHEN - 90.1-2013 SERVICE WATER BOOSTER LOOP SUPPLY OUTLET BRANCH,FULLSERVICERESTAURANT KITCHEN - 90.1-2013 SERVICE WATER BOOSTER LOOP,Plant Supply,PIPE ADIABATIC 7 INLET WATER NODE,FULLSERVICERESTAURANT KITCHEN - 90.1-2013 SERVICE WATER BOOSTER LOOP SUPPLY OUTLET NODE
 Branch List,10,FULLSERVICERESTAURANT KITCHEN - 90.1-2013 SERVICE WATER BOOSTER LOOP DEMAND BRANCHES,FULLSERVICERESTAURANT KITCHEN - 90.1-2013 SERVICE WATER BOOSTER LOOP,Plant Demand,5
   Branch,1,FULLSERVICERESTAURANT KITCHEN - 90.1-2013 SERVICE WATER BOOSTER LOOP DEMAND INLET BRANCH,FULLSERVICERESTAURANT KITCHEN - 90.1-2013 SERVICE WATER BOOSTER LOOP,Plant Demand,FULLSERVICERESTAURANT KITCHEN - 90.1-2013 SERVICE WATER BOOSTER LOOP DEMAND INLET NODE,PIPE ADIABATIC 8 OUTLET WATER NODE
   Branch,2,FULLSERVICERESTAURANT KITCHEN - 90.1-2013 SERVICE WATER BOOSTER LOOP DEMAND BRANCH 1,FULLSERVICERESTAURANT KITCHEN - 90.1-2013 SERVICE WATER BOOSTER LOOP,Plant Demand,PIPE ADIABATIC 6 INLET WATER NODE,PIPE ADIABATIC 6 OUTLET WATER NODE
   Branch,3,FULLSERVICERESTAURANT KITCHEN - 90.1-2013 SERVICE WATER BOOSTER LOOP DEMAND BRANCH 2,FULLSERVICERESTAURANT KITCHEN - 90.1-2013 SERVICE WATER BOOSTER LOOP,Plant Demand,BOOSTER FULLSERVICERESTAURANT KITCHEN - 90.1-2013 WUC 90.91GPM AT 180F INLET WATER NODE,BOOSTER FULLSERVICERESTAURANT KITCHEN - 90.1-2013 WUC 90.91GPM AT 180F OUTLET WATER NODE
   Branch,4,FULLSERVICERESTAURANT KITCHEN - 90.1-2013 SERVICE WATER BOOSTER LOOP DEMAND BYPASS BRANCH,FULLSERVICERESTAURANT KITCHEN - 90.1-2013 SERVICE WATER BOOSTER LOOP,Plant Demand,FULLSERVICERESTAURANT KITCHEN - 90.1-2013 SERVICE WATER BOOSTER LOOP DEMAND BYPASS PIPE INLET NODE,FULLSERVICERESTAURANT KITCHEN - 90.1-2013 SERVICE WATER BOOSTER LOOP DEMAND BYPASS PIPE OUTLET NODE
   Branch,5,FULLSERVICERESTAURANT KITCHEN - 90.1-2013 SERVICE WATER BOOSTER LOOP DEMAND OUTLET BRANCH,FULLSERVICERESTAURANT KITCHEN - 90.1-2013 SERVICE WATER BOOSTER LOOP,Plant Demand,PIPE ADIABATIC 9 INLET WATER NODE,FULLSERVICERESTAURANT KITCHEN - 90.1-2013 SERVICE WATER BOOSTER LOOP DEMAND OUTLET NODE
 Branch List,11,FULLSERVICERESTAURANT KITCHEN - 90.1-2013 SERVICE WATER LOOP SUPPLY BRANCHES,FULLSERVICERESTAURANT KITCHEN - 90.1-2013 SERVICE WATER LOOP,Plant Supply,4
   Branch,1,FULLSERVICERESTAURANT KITCHEN - 90.1-2013 SERVICE WATER LOOP SUPPLY INLET BRANCH,FULLSERVICERESTAURANT KITCHEN - 90.1-2013 SERVICE WATER LOOP,Plant Supply,FULLSERVICERESTAURANT KITCHEN - 90.1-2013 SERVICE WATER LOOP SUPPLY INLET NODE,FULLSERVICERESTAURANT KITCHEN - 90.1-2013 SERVICE WATER LOOP WATER MAINS PRESSURE DRIVEN OUTLET WATER NODE
   Branch,2,FULLSERVICERESTAURANT KITCHEN - 90.1-2013 SERVICE WATER LOOP SUPPLY BRANCH 1,FULLSERVICERESTAURANT KITCHEN - 90.1-2013 SERVICE WATER LOOP,Plant Supply,5727GAL NATURALGAS WATER HEATER - 5727KBTU/HR SUPPLY INLET WATER NODE,5727GAL NATURALGAS WATER HEATER - 5727KBTU/HR SUPPLY OUTLET WATER NODE
   Branch,3,FULLSERVICERESTAURANT KITCHEN - 90.1-2013 SERVICE WATER LOOP SUPPLY BRANCH 2,FULLSERVICERESTAURANT KITCHEN - 90.1-2013 SERVICE WATER LOOP,Plant Supply,PIPE ADIABATIC 1 INLET WATER NODE,PIPE ADIABATIC 1 OUTLET WATER NODE
   Branch,4,FULLSERVICERESTAURANT KITCHEN - 90.1-2013 SERVICE WATER LOOP SUPPLY OUTLET BRANCH,FULLSERVICERESTAURANT KITCHEN - 90.1-2013 SERVICE WATER LOOP,Plant Supply,PIPE ADIABATIC 3 INLET WATER NODE,FULLSERVICERESTAURANT KITCHEN - 90.1-2013 SERVICE WATER LOOP SUPPLY OUTLET NODE
 Branch List,12,FULLSERVICERESTAURANT KITCHEN - 90.1-2013 SERVICE WATER LOOP DEMAND BRANCHES,FULLSERVICERESTAURANT KITCHEN - 90.1-2013 SERVICE WATER LOOP,Plant Demand,6
   Branch,1,FULLSERVICERESTAURANT KITCHEN - 90.1-2013 SERVICE WATER LOOP DEMAND INLET BRANCH,FULLSERVICERESTAURANT KITCHEN - 90.1-2013 SERVICE WATER LOOP,Plant Demand,FULLSERVICERESTAURANT KITCHEN - 90.1-2013 SERVICE WATER LOOP DEMAND INLET NODE,FULLSERVICERESTAURANT KITCHEN - 90.1-2013 SERVICE WATER LOOP PIPE 20.0FT OUTLET WATER NODE
   Branch,2,FULLSERVICERESTAURANT KITCHEN - 90.1-2013 SERVICE WATER LOOP DEMAND BRANCH 1,FULLSERVICERESTAURANT KITCHEN - 90.1-2013 SERVICE WATER LOOP,Plant Demand,PIPE ADIABATIC 2 INLET WATER NODE,PIPE ADIABATIC 2 OUTLET WATER NODE
   Branch,3,FULLSERVICERESTAURANT KITCHEN - 90.1-2013 SERVICE WATER LOOP DEMAND BRANCH 2,FULLSERVICERESTAURANT KITCHEN - 90.1-2013 SERVICE WATER LOOP,Plant Demand,FULLSERVICERESTAURANT KITCHEN - 90.1-2013 WUC 60.61GPM AT 140F INLET WATER NODE,FULLSERVICERESTAURANT KITCHEN - 90.1-2013 WUC 60.61GPM AT 140F OUTLET WATER NODE
   Branch,4,FULLSERVICERESTAURANT KITCHEN - 90.1-2013 SERVICE WATER LOOP DEMAND BRANCH 3,FULLSERVICERESTAURANT KITCHEN - 90.1-2013 SERVICE WATER LOOP,Plant Demand,HX FOR BOOSTER WATER HEATING DEMAND INLET WATER NODE,MAINS WATER MAKEUP FOR SWH BOOSTER OUTLET WATER NODE
   Branch,5,FULLSERVICERESTAURANT KITCHEN - 90.1-2013 SERVICE WATER LOOP DEMAND BYPASS BRANCH,FULLSERVICERESTAURANT KITCHEN - 90.1-2013 SERVICE WATER LOOP,Plant Demand,FULLSERVICERESTAURANT KITCHEN - 90.1-2013 SERVICE WATER LOOP DEMAND BYPASS PIPE INLET NODE,FULLSERVICERESTAURANT KITCHEN - 90.1-2013 SERVICE WATER LOOP DEMAND BYPASS PIPE OUTLET NODE
   Branch,6,FULLSERVICERESTAURANT KITCHEN - 90.1-2013 SERVICE WATER LOOP DEMAND OUTLET BRANCH,FULLSERVICERESTAURANT KITCHEN - 90.1-2013 SERVICE WATER LOOP,Plant Demand,PIPE ADIABATIC 4 INLET WATER NODE,FULLSERVICERESTAURANT KITCHEN - 90.1-2013 SERVICE WATER LOOP DEMAND OUTLET NODE
 Branch List,13,HOT WATER LOOP SUPPLY BRANCHES,HOT WATER LOOP,Plant Supply,4
   Branch,1,HOT WATER LOOP SUPPLY INLET BRANCH,HOT WATER LOOP,Plant Supply,HOT WATER LOOP SUPPLY INLET NODE,HOT WATER LOOP PUMP OUTLET WATER NODE
   Branch,2,HOT WATER LOOP SUPPLY BRANCH 1,HOT WATER LOOP,Plant Supply,BOILER INLET WATER NODE,BOILER OUTLET WATER NODE
   Branch,3,HOT WATER LOOP SUPPLY BRANCH 2,HOT WATER LOOP,Plant Supply,HOT WATER LOOP SUPPLY EQUIPMENT BYPASS INLET WATER NODE,HOT WATER LOOP SUPPLY EQUIPMENT BYPASS OUTLET WATER NODE
   Branch,4,HOT WATER LOOP SUPPLY OUTLET BRANCH,HOT WATER LOOP,Plant Supply,HOT WATER LOOP SUPPLY OUTLET INLET WATER NODE,HOT WATER LOOP SUPPLY OUTLET NODE
 Branch List,14,HOT WATER LOOP DEMAND BRANCHES,HOT WATER LOOP,Plant Demand,12
   Branch,1,HOT WATER LOOP DEMAND INLET BRANCH,HOT WATER LOOP,Plant Demand,HOT WATER LOOP DEMAND INLET NODE,HOT WATER LOOP DEMAND INLET OUTLET WATER NODE
   Branch,2,HOT WATER LOOP DEMAND BRANCH 1,HOT WATER LOOP,Plant Demand,HOT WATER LOOP COIL BYPASS INLET WATER NODE,HOT WATER LOOP COIL BYPASS OUTLET WATER NODE
   Branch,3,HOT WATER LOOP DEMAND BRANCH 2,HOT WATER LOOP,Plant Demand,1 ZONE VAV MAIN HTG COIL INLET WATER NODE,1 ZONE VAV MAIN HTG COIL OUTLET WATER NODE
   Branch,4,HOT WATER LOOP DEMAND BRANCH 3,HOT WATER LOOP,Plant Demand,BUILDING STORY 1 THERMALZONE REHEAT COIL INLET WATER NODE,BUILDING STORY 1 THERMALZONE REHEAT COIL OUTLET WATER NODE
   Branch,5,HOT WATER LOOP DEMAND BRANCH 4,HOT WATER LOOP,Plant Demand,1 ZONE VAV 1 MAIN HTG COIL INLET WATER NODE,1 ZONE VAV 1 MAIN HTG COIL OUTLET WATER NODE
   Branch,6,HOT WATER LOOP DEMAND BRANCH 5,HOT WATER LOOP,Plant Demand,BUILDING STORY 2 THERMALZONE REHEAT COIL INLET WATER NODE,BUILDING STORY 2 THERMALZONE REHEAT COIL OUTLET WATER NODE
   Branch,7,HOT WATER LOOP DEMAND BRANCH 6,HOT WATER LOOP,Plant Demand,1 ZONE VAV 2 MAIN HTG COIL INLET WATER NODE,1 ZONE VAV 2 MAIN HTG COIL OUTLET WATER NODE
   Branch,8,HOT WATER LOOP DEMAND BRANCH 7,HOT WATER LOOP,Plant Demand,BUILDING STORY 3 THERMALZONE REHEAT COIL INLET WATER NODE,BUILDING STORY 3 THERMALZONE REHEAT COIL OUTLET WATER NODE
   Branch,9,HOT WATER LOOP DEMAND BRANCH 8,HOT WATER LOOP,Plant Demand,1 ZONE VAV 3 MAIN HTG COIL INLET WATER NODE,1 ZONE VAV 3 MAIN HTG COIL OUTLET WATER NODE
   Branch,10,HOT WATER LOOP DEMAND BRANCH 9,HOT WATER LOOP,Plant Demand,BUILDING STORY 4 THERMALZONE REHEAT COIL INLET WATER NODE,BUILDING STORY 4 THERMALZONE REHEAT COIL OUTLET WATER NODE
   Branch,11,HOT WATER LOOP DEMAND BYPASS BRANCH,HOT WATER LOOP,Plant Demand,HOT WATER LOOP DEMAND BYPASS PIPE INLET NODE,HOT WATER LOOP DEMAND BYPASS PIPE OUTLET NODE
   Branch,12,HOT WATER LOOP DEMAND OUTLET BRANCH,HOT WATER LOOP,Plant Demand,HOT WATER LOOP DEMAND OUTLET INLET WATER NODE,HOT WATER LOOP DEMAND OUTLET NODE
 Branch List,15,OFFICE SHARED SERVICE WATER LOOP SUPPLY BRANCHES,OFFICE SHARED SERVICE WATER LOOP,Plant Supply,4
   Branch,1,OFFICE SHARED SERVICE WATER LOOP SUPPLY INLET BRANCH,OFFICE SHARED SERVICE WATER LOOP,Plant Supply,OFFICE SHARED SERVICE WATER LOOP SUPPLY INLET NODE,OFFICE SHARED SERVICE WATER LOOP CIRCULATOR PUMP OUTLET WATER NODE
   Branch,2,OFFICE SHARED SERVICE WATER LOOP SUPPLY BRANCH 1,OFFICE SHARED SERVICE WATER LOOP,Plant Supply,113GAL ELECTRICITY WATER HEATER - 113KBTU/HR SUPPLY INLET WATER NODE,113GAL ELECTRICITY WATER HEATER - 113KBTU/HR SUPPLY OUTLET WATER NODE
   Branch,3,OFFICE SHARED SERVICE WATER LOOP SUPPLY BRANCH 2,OFFICE SHARED SERVICE WATER LOOP,Plant Supply,PIPE ADIABATIC 10 INLET WATER NODE,PIPE ADIABATIC 10 OUTLET WATER NODE
   Branch,4,OFFICE SHARED SERVICE WATER LOOP SUPPLY OUTLET BRANCH,OFFICE SHARED SERVICE WATER LOOP,Plant Supply,PIPE ADIABATIC 12 INLET WATER NODE,OFFICE SHARED SERVICE WATER LOOP SUPPLY OUTLET NODE
 Branch List,16,OFFICE SHARED SERVICE WATER LOOP DEMAND BRANCHES,OFFICE SHARED SERVICE WATER LOOP,Plant Demand,5
   Branch,1,OFFICE SHARED SERVICE WATER LOOP DEMAND INLET BRANCH,OFFICE SHARED SERVICE WATER LOOP,Plant Demand,OFFICE SHARED SERVICE WATER LOOP DEMAND INLET NODE,OFFICE SHARED SERVICE WATER LOOP PIPE 887.2854201472547FT OUTLET WATER NODE
   Branch,2,OFFICE SHARED SERVICE WATER LOOP DEMAND BRANCH 1,OFFICE SHARED SERVICE WATER LOOP,Plant Demand,PIPE ADIABATIC 11 INLET WATER NODE,PIPE ADIABATIC 11 OUTLET WATER NODE
   Branch,3,OFFICE SHARED SERVICE WATER LOOP DEMAND BRANCH 2,OFFICE SHARED SERVICE WATER LOOP,Plant Demand,OFFICE WHOLEBUILDING - LG OFFICE - 90.1-2013 WUC 3.15GPM AT 140F INLET WATER NODE,OFFICE WHOLEBUILDING - LG OFFICE - 90.1-2013 WUC 3.15GPM AT 140F OUTLET WATER NODE
   Branch,4,OFFICE SHARED SERVICE WATER LOOP DEMAND BYPASS BRANCH,OFFICE SHARED SERVICE WATER LOOP,Plant Demand,OFFICE SHARED SERVICE WATER LOOP DEMAND BYPASS PIPE INLET NODE,OFFICE SHARED SERVICE WATER LOOP DEMAND BYPASS PIPE OUTLET NODE
   Branch,5,OFFICE SHARED SERVICE WATER LOOP DEMAND OUTLET BRANCH,OFFICE SHARED SERVICE WATER LOOP,Plant Demand,PIPE ADIABATIC 13 INLET WATER NODE,OFFICE SHARED SERVICE WATER LOOP DEMAND OUTLET NODE
! ===============================================================
! <#Supply Air Paths>,<Number of Supply Air Paths>
 #Supply Air Paths,4
! <Supply Air Path>,<Supply Air Path Count>,<Supply Air Path Name>,<AirLoopHVAC Name>
! <#Components on Supply Air Path>,<Number of Components>
! <Supply Air Path Component>,<Component Count>,<Component Type>,<Component Name>,<AirLoopHVAC Name>
! <#Outlet Nodes on Supply Air Path Component>,<Number of Nodes>
! <Supply Air Path Component Nodes>,<Node Count>,<Component Type>,<Component Name>,<Inlet Node Name>,<Outlet Node Name>,<AirLoopHVAC Name>
 Supply Air Path,1,1 ZONE VAV 1 ZONE VAV DEMAND INLET NODE SUPPLY PATH,1 ZONE VAV
   #Components on Supply Air Path,1
   Supply Air Path Component,1,AIRLOOPHVAC:ZONESPLITTER,AIR LOOP HVAC ZONE SPLITTER 1,1 ZONE VAV
     #Outlet Nodes on Supply Air Path Component,1
     Supply Air Path Component Nodes,1,AIRLOOPHVAC:ZONESPLITTER,AIR LOOP HVAC ZONE SPLITTER 1,1 ZONE VAV DEMAND INLET NODE,BUILDING STORY 1 THERMALZONE VAV TERMINAL INLET AIR NODE,1 ZONE VAV
! <#Nodes on Supply Air Path>,<Number of Nodes>
! <Supply Air Path Node>,<Node Type>,<Node Count>,<Node Name>,<AirLoopHVAC Name>
#Nodes on Supply Air Path,2
   Supply Air Path Node,Inlet Node,1,1 ZONE VAV DEMAND INLET NODE,1 ZONE VAV
   Supply Air Path Node,Outlet Node,2,BUILDING STORY 1 THERMALZONE VAV TERMINAL INLET AIR NODE,1 ZONE VAV
 Supply Air Path,2,1 ZONE VAV 1 1 ZONE VAV 1 DEMAND INLET NODE SUPPLY PATH,1 ZONE VAV 1
   #Components on Supply Air Path,1
   Supply Air Path Component,1,AIRLOOPHVAC:ZONESPLITTER,AIR LOOP HVAC ZONE SPLITTER 2,1 ZONE VAV 1
     #Outlet Nodes on Supply Air Path Component,1
     Supply Air Path Component Nodes,1,AIRLOOPHVAC:ZONESPLITTER,AIR LOOP HVAC ZONE SPLITTER 2,1 ZONE VAV 1 DEMAND INLET NODE,BUILDING STORY 2 THERMALZONE VAV TERMINAL INLET AIR NODE,1 ZONE VAV 1
! <#Nodes on Supply Air Path>,<Number of Nodes>
! <Supply Air Path Node>,<Node Type>,<Node Count>,<Node Name>,<AirLoopHVAC Name>
#Nodes on Supply Air Path,2
   Supply Air Path Node,Inlet Node,1,1 ZONE VAV 1 DEMAND INLET NODE,1 ZONE VAV 1
   Supply Air Path Node,Outlet Node,2,BUILDING STORY 2 THERMALZONE VAV TERMINAL INLET AIR NODE,1 ZONE VAV 1
 Supply Air Path,3,1 ZONE VAV 2 1 ZONE VAV 2 DEMAND INLET NODE SUPPLY PATH,1 ZONE VAV 2
   #Components on Supply Air Path,1
   Supply Air Path Component,1,AIRLOOPHVAC:ZONESPLITTER,AIR LOOP HVAC ZONE SPLITTER 3,1 ZONE VAV 2
     #Outlet Nodes on Supply Air Path Component,1
     Supply Air Path Component Nodes,1,AIRLOOPHVAC:ZONESPLITTER,AIR LOOP HVAC ZONE SPLITTER 3,1 ZONE VAV 2 DEMAND INLET NODE,BUILDING STORY 3 THERMALZONE VAV TERMINAL INLET AIR NODE,1 ZONE VAV 2
! <#Nodes on Supply Air Path>,<Number of Nodes>
! <Supply Air Path Node>,<Node Type>,<Node Count>,<Node Name>,<AirLoopHVAC Name>
#Nodes on Supply Air Path,2
   Supply Air Path Node,Inlet Node,1,1 ZONE VAV 2 DEMAND INLET NODE,1 ZONE VAV 2
   Supply Air Path Node,Outlet Node,2,BUILDING STORY 3 THERMALZONE VAV TERMINAL INLET AIR NODE,1 ZONE VAV 2
 Supply Air Path,4,1 ZONE VAV 3 1 ZONE VAV 3 DEMAND INLET NODE SUPPLY PATH,1 ZONE VAV 3
   #Components on Supply Air Path,1
   Supply Air Path Component,1,AIRLOOPHVAC:ZONESPLITTER,AIR LOOP HVAC ZONE SPLITTER 4,1 ZONE VAV 3
     #Outlet Nodes on Supply Air Path Component,1
     Supply Air Path Component Nodes,1,AIRLOOPHVAC:ZONESPLITTER,AIR LOOP HVAC ZONE SPLITTER 4,1 ZONE VAV 3 DEMAND INLET NODE,BUILDING STORY 4 THERMALZONE VAV TERMINAL INLET AIR NODE,1 ZONE VAV 3
! <#Nodes on Supply Air Path>,<Number of Nodes>
! <Supply Air Path Node>,<Node Type>,<Node Count>,<Node Name>,<AirLoopHVAC Name>
#Nodes on Supply Air Path,2
   Supply Air Path Node,Inlet Node,1,1 ZONE VAV 3 DEMAND INLET NODE,1 ZONE VAV 3
   Supply Air Path Node,Outlet Node,2,BUILDING STORY 4 THERMALZONE VAV TERMINAL INLET AIR NODE,1 ZONE VAV 3
! ===============================================================
! <#Return Air Paths>,<Number of Return Air Paths>
 #Return Air Paths,4
! <Return Air Path>,<Return Air Path Count>,<Return Air Path Name>,<AirLoopHVAC Name>
! <#Components on Return Air Path>,<Number of Components>
! <Return Air Path Component>,<Component Count>,<Component Type>,<Component Name>,<AirLoopHVAC Name>
! <#Inlet Nodes on Return Air Path Component>,<Number of Nodes>
! <Return Air Path Component Nodes>,<Node Count>,<Component Type>,<Component Name>,<Inlet Node Name>,<Outlet Node Name>,<AirLoopHVAC Name>
 Return Air Path,1,1 ZONE VAV RETURN PATH,1 ZONE VAV
   #Components on Return Air Path,1
   Return Air Path Component,1,AIRLOOPHVAC:ZONEMIXER,AIR LOOP HVAC ZONE MIXER 1,1 ZONE VAV
     #Inlet Nodes on Return Air Path Component,1
     Return Air Path Component Nodes,1,AIRLOOPHVAC:ZONEMIXER,AIR LOOP HVAC ZONE MIXER 1,BUILDING STORY 1 THERMALZONE RETURN AIR NODE,1 ZONE VAV DEMAND OUTLET NODE,1 ZONE VAV
! <#Nodes on Return Air Path>,<Number of Nodes>
! <Return Air Path Node>,<Node Type>,<Node Count>,<Node Name>,<AirLoopHVAC Name>
   #Nodes on Return Air Path,2
   Return Air Path Node,Outlet Node,1,1 ZONE VAV DEMAND OUTLET NODE,1 ZONE VAV
   Return Air Path Node,Inlet Node,2,BUILDING STORY 1 THERMALZONE RETURN AIR NODE,1 ZONE VAV
 Return Air Path,2,1 ZONE VAV 1 RETURN PATH,1 ZONE VAV 1
   #Components on Return Air Path,1
   Return Air Path Component,1,AIRLOOPHVAC:ZONEMIXER,AIR LOOP HVAC ZONE MIXER 2,1 ZONE VAV 1
     #Inlet Nodes on Return Air Path Component,1
     Return Air Path Component Nodes,1,AIRLOOPHVAC:ZONEMIXER,AIR LOOP HVAC ZONE MIXER 2,BUILDING STORY 2 THERMALZONE RETURN AIR NODE,1 ZONE VAV 1 DEMAND OUTLET NODE,1 ZONE VAV 1
! <#Nodes on Return Air Path>,<Number of Nodes>
! <Return Air Path Node>,<Node Type>,<Node Count>,<Node Name>,<AirLoopHVAC Name>
   #Nodes on Return Air Path,2
   Return Air Path Node,Outlet Node,1,1 ZONE VAV 1 DEMAND OUTLET NODE,1 ZONE VAV 1
   Return Air Path Node,Inlet Node,2,BUILDING STORY 2 THERMALZONE RETURN AIR NODE,1 ZONE VAV 1
 Return Air Path,3,1 ZONE VAV 2 RETURN PATH,1 ZONE VAV 2
   #Components on Return Air Path,1
   Return Air Path Component,1,AIRLOOPHVAC:ZONEMIXER,AIR LOOP HVAC ZONE MIXER 3,1 ZONE VAV 2
     #Inlet Nodes on Return Air Path Component,1
     Return Air Path Component Nodes,1,AIRLOOPHVAC:ZONEMIXER,AIR LOOP HVAC ZONE MIXER 3,BUILDING STORY 3 THERMALZONE RETURN AIR NODE,1 ZONE VAV 2 DEMAND OUTLET NODE,1 ZONE VAV 2
! <#Nodes on Return Air Path>,<Number of Nodes>
! <Return Air Path Node>,<Node Type>,<Node Count>,<Node Name>,<AirLoopHVAC Name>
   #Nodes on Return Air Path,2
   Return Air Path Node,Outlet Node,1,1 ZONE VAV 2 DEMAND OUTLET NODE,1 ZONE VAV 2
   Return Air Path Node,Inlet Node,2,BUILDING STORY 3 THERMALZONE RETURN AIR NODE,1 ZONE VAV 2
 Return Air Path,4,1 ZONE VAV 3 RETURN PATH,1 ZONE VAV 3
   #Components on Return Air Path,1
   Return Air Path Component,1,AIRLOOPHVAC:ZONEMIXER,AIR LOOP HVAC ZONE MIXER 4,1 ZONE VAV 3
     #Inlet Nodes on Return Air Path Component,1
     Return Air Path Component Nodes,1,AIRLOOPHVAC:ZONEMIXER,AIR LOOP HVAC ZONE MIXER 4,BUILDING STORY 4 THERMALZONE RETURN AIR NODE,1 ZONE VAV 3 DEMAND OUTLET NODE,1 ZONE VAV 3
! <#Nodes on Return Air Path>,<Number of Nodes>
! <Return Air Path Node>,<Node Type>,<Node Count>,<Node Name>,<AirLoopHVAC Name>
   #Nodes on Return Air Path,2
   Return Air Path Node,Outlet Node,1,1 ZONE VAV 3 DEMAND OUTLET NODE,1 ZONE VAV 3
   Return Air Path Node,Inlet Node,2,BUILDING STORY 4 THERMALZONE RETURN AIR NODE,1 ZONE VAV 3
! ===============================================================
! #Outdoor Air Nodes,<Number of Outdoor Air Nodes>
 #Outdoor Air Nodes,5
! <Outdoor Air Node>,<NodeNumber>,<Node Name>
 Outdoor Air Node,174,1 ZONE VAV OUTDOOR AIR NODE
 Outdoor Air Node,175,1 ZONE VAV 1 OUTDOOR AIR NODE
 Outdoor Air Node,176,1 ZONE VAV 2 OUTDOOR AIR NODE
 Outdoor Air Node,177,1 ZONE VAV 3 OUTDOOR AIR NODE
 Outdoor Air Node,178,MODEL OUTDOOR AIR NODE
! ===============================================================
! <#Component Sets>,<Number of Component Sets>
 #Component Sets,96
! <Component Set>,<Component Set Count>,<Parent Object Type>,<Parent Object Name>,<Component Type>,<Component Name>,<Inlet Node ID>,<Outlet Node ID>,<Description>
 Component Set,1,BRANCH,1 ZONE VAV MAIN BRANCH,AIRLOOPHVAC:OUTDOORAIRSYSTEM,1 ZONE VAV OA SYSTEM,1 ZONE VAV SUPPLY INLET NODE,1 ZONE VAV MIXED AIR NODE,Air Nodes
 Component Set,2,BRANCH,1 ZONE VAV MAIN BRANCH,COIL:COOLING:WATER,1 ZONE VAV CLG COIL,1 ZONE VAV MIXED AIR NODE,1 ZONE VAV CLG COIL OUTLET AIR NODE,Air Nodes
 Component Set,3,BRANCH,1 ZONE VAV MAIN BRANCH,COIL:HEATING:WATER,1 ZONE VAV MAIN HTG COIL,1 ZONE VAV CLG COIL OUTLET AIR NODE,1 ZONE VAV MAIN HTG COIL OUTLET AIR NODE,Air Nodes
 Component Set,4,BRANCH,1 ZONE VAV MAIN BRANCH,FAN:VARIABLEVOLUME,1 ZONE VAV FAN,1 ZONE VAV MAIN HTG COIL OUTLET AIR NODE,1 ZONE VAV SUPPLY OUTLET NODE,Air Nodes
 Component Set,5,BRANCH,1 ZONE VAV 1 MAIN BRANCH,AIRLOOPHVAC:OUTDOORAIRSYSTEM,1 ZONE VAV 1 OA SYSTEM,1 ZONE VAV 1 SUPPLY INLET NODE,1 ZONE VAV 1 MIXED AIR NODE,Air Nodes
 Component Set,6,BRANCH,1 ZONE VAV 1 MAIN BRANCH,COIL:COOLING:WATER,1 ZONE VAV 1 CLG COIL,1 ZONE VAV 1 MIXED AIR NODE,1 ZONE VAV 1 CLG COIL OUTLET AIR NODE,Air Nodes
 Component Set,7,BRANCH,1 ZONE VAV 1 MAIN BRANCH,COIL:HEATING:WATER,1 ZONE VAV 1 MAIN HTG COIL,1 ZONE VAV 1 CLG COIL OUTLET AIR NODE,1 ZONE VAV 1 MAIN HTG COIL OUTLET AIR NODE,Air Nodes
 Component Set,8,BRANCH,1 ZONE VAV 1 MAIN BRANCH,FAN:VARIABLEVOLUME,1 ZONE VAV 1 FAN,1 ZONE VAV 1 MAIN HTG COIL OUTLET AIR NODE,1 ZONE VAV 1 SUPPLY OUTLET NODE,Air Nodes
 Component Set,9,BRANCH,1 ZONE VAV 2 MAIN BRANCH,AIRLOOPHVAC:OUTDOORAIRSYSTEM,1 ZONE VAV 2 OA SYSTEM,1 ZONE VAV 2 SUPPLY INLET NODE,1 ZONE VAV 2 MIXED AIR NODE,Air Nodes
 Component Set,10,BRANCH,1 ZONE VAV 2 MAIN BRANCH,COIL:COOLING:WATER,1 ZONE VAV 2 CLG COIL,1 ZONE VAV 2 MIXED AIR NODE,1 ZONE VAV 2 CLG COIL OUTLET AIR NODE,Air Nodes
 Component Set,11,BRANCH,1 ZONE VAV 2 MAIN BRANCH,COIL:HEATING:WATER,1 ZONE VAV 2 MAIN HTG COIL,1 ZONE VAV 2 CLG COIL OUTLET AIR NODE,1 ZONE VAV 2 MAIN HTG COIL OUTLET AIR NODE,Air Nodes
 Component Set,12,BRANCH,1 ZONE VAV 2 MAIN BRANCH,FAN:VARIABLEVOLUME,1 ZONE VAV 2 FAN,1 ZONE VAV 2 MAIN HTG COIL OUTLET AIR NODE,1 ZONE VAV 2 SUPPLY OUTLET NODE,Air Nodes
 Component Set,13,BRANCH,1 ZONE VAV 3 MAIN BRANCH,AIRLOOPHVAC:OUTDOORAIRSYSTEM,1 ZONE VAV 3 OA SYSTEM,1 ZONE VAV 3 SUPPLY INLET NODE,1 ZONE VAV 3 MIXED AIR NODE,Air Nodes
 Component Set,14,BRANCH,1 ZONE VAV 3 MAIN BRANCH,COIL:COOLING:WATER,1 ZONE VAV 3 CLG COIL,1 ZONE VAV 3 MIXED AIR NODE,1 ZONE VAV 3 CLG COIL OUTLET AIR NODE,Air Nodes
 Component Set,15,BRANCH,1 ZONE VAV 3 MAIN BRANCH,COIL:HEATING:WATER,1 ZONE VAV 3 MAIN HTG COIL,1 ZONE VAV 3 CLG COIL OUTLET AIR NODE,1 ZONE VAV 3 MAIN HTG COIL OUTLET AIR NODE,Air Nodes
 Component Set,16,BRANCH,1 ZONE VAV 3 MAIN BRANCH,FAN:VARIABLEVOLUME,1 ZONE VAV 3 FAN,1 ZONE VAV 3 MAIN HTG COIL OUTLET AIR NODE,1 ZONE VAV 3 SUPPLY OUTLET NODE,Air Nodes
 Component Set,17,BRANCH,CHILLED WATER LOOP SUPPLY INLET BRANCH,PUMP:CONSTANTSPEED,CHILLED WATER LOOP PRIMARY PUMP,CHILLED WATER LOOP SUPPLY INLET NODE,CHILLED WATER LOOP PRIMARY PUMP OUTLET WATER NODE,Water Nodes
 Component Set,18,BRANCH,CHILLED WATER LOOP SUPPLY BRANCH 1,CHILLER:ELECTRIC:EIR,90.1-2013 WATERCOOLED  ROTARY SCREW CHILLER 0 2766TONS 0.6KW/TON,90.1-2013 WATERCOOLED  ROTARY SCREW CHILLER 0 SUPPLY INLET WATER NODE,90.1-2013 WATERCOOLED  ROTARY SCREW CHILLER 0 SUPPLY OUTLET WATER NODE,Chilled Water Nodes
 Component Set,19,BRANCH,CHILLED WATER LOOP SUPPLY BRANCH 2,PIPE:ADIABATIC,CHILLED WATER LOOP CHILLER BYPASS,CHILLED WATER LOOP CHILLER BYPASS INLET WATER NODE,CHILLED WATER LOOP CHILLER BYPASS OUTLET WATER NODE,Pipe Nodes
 Component Set,20,BRANCH,CHILLED WATER LOOP SUPPLY OUTLET BRANCH,PIPE:ADIABATIC,CHILLED WATER LOOP SUPPLY OUTLET,CHILLED WATER LOOP SUPPLY OUTLET INLET WATER NODE,CHILLED WATER LOOP SUPPLY OUTLET NODE,Pipe Nodes
 Component Set,21,BRANCH,CHILLED WATER LOOP DEMAND INLET BRANCH,PIPE:ADIABATIC,CHILLED WATER LOOP DEMAND INLET,CHILLED WATER LOOP DEMAND INLET NODE,CHILLED WATER LOOP SECONDARY PUMP INLET WATER NODE,Pipe Nodes
 Component Set,22,BRANCH,CHILLED WATER LOOP DEMAND INLET BRANCH,PUMP:VARIABLESPEED,CHILLED WATER LOOP SECONDARY PUMP,CHILLED WATER LOOP SECONDARY PUMP INLET WATER NODE,CHILLED WATER LOOP SECONDARY PUMP OUTLET WATER NODE,Water Nodes
 Component Set,23,BRANCH,CHILLED WATER LOOP DEMAND BRANCH 1,PIPE:ADIABATIC,CHILLED WATER LOOP COIL BYPASS,CHILLED WATER LOOP COIL BYPASS INLET WATER NODE,CHILLED WATER LOOP COIL BYPASS OUTLET WATER NODE,Pipe Nodes
 Component Set,24,BRANCH,CHILLED WATER LOOP DEMAND BRANCH 2,COIL:COOLING:WATER,1 ZONE VAV CLG COIL,1 ZONE VAV CLG COIL INLET WATER NODE,1 ZONE VAV CLG COIL OUTLET WATER NODE,Water Nodes
 Component Set,25,BRANCH,CHILLED WATER LOOP DEMAND BRANCH 3,COIL:COOLING:WATER,1 ZONE VAV 1 CLG COIL,1 ZONE VAV 1 CLG COIL INLET WATER NODE,1 ZONE VAV 1 CLG COIL OUTLET WATER NODE,Water Nodes
 Component Set,26,BRANCH,CHILLED WATER LOOP DEMAND BRANCH 4,COIL:COOLING:WATER,1 ZONE VAV 2 CLG COIL,1 ZONE VAV 2 CLG COIL INLET WATER NODE,1 ZONE VAV 2 CLG COIL OUTLET WATER NODE,Water Nodes
 Component Set,27,BRANCH,CHILLED WATER LOOP DEMAND BRANCH 5,COIL:COOLING:WATER,1 ZONE VAV 3 CLG COIL,1 ZONE VAV 3 CLG COIL INLET WATER NODE,1 ZONE VAV 3 CLG COIL OUTLET WATER NODE,Water Nodes
 Component Set,28,BRANCH,CHILLED WATER LOOP DEMAND BYPASS BRANCH,PIPE:ADIABATIC,CHILLED WATER LOOP DEMAND BYPASS PIPE,CHILLED WATER LOOP DEMAND BYPASS PIPE INLET NODE,CHILLED WATER LOOP DEMAND BYPASS PIPE OUTLET NODE,Pipe Nodes
 Component Set,29,BRANCH,CHILLED WATER LOOP DEMAND OUTLET BRANCH,PIPE:ADIABATIC,CHILLED WATER LOOP DEMAND OUTLET,CHILLED WATER LOOP DEMAND OUTLET INLET WATER NODE,CHILLED WATER LOOP DEMAND OUTLET NODE,Pipe Nodes
 Component Set,30,BRANCH,CONDENSER WATER LOOP SUPPLY INLET BRANCH,PUMP:CONSTANTSPEED,CONDENSER WATER LOOP CONSTANT PUMP,CONDENSER WATER LOOP SUPPLY INLET NODE,CONDENSER WATER LOOP CONSTANT PUMP OUTLET WATER NODE,Water Nodes
 Component Set,31,BRANCH,CONDENSER WATER LOOP SUPPLY BRANCH 1,COOLINGTOWER:VARIABLESPEED,PROPELLER OR AXIAL VARIABLE SPEED FAN OPEN COOLING TOWER 40.2 GPM/HP,PROPELLER OR AXIAL VARIABLE SPEED FAN OPEN COOLING TOWER INLET WATER NODE,PROPELLER OR AXIAL VARIABLE SPEED FAN OPEN COOLING TOWER OUTLET WATER NODE,Chilled Water Nodes
 Component Set,32,BRANCH,CONDENSER WATER LOOP SUPPLY BRANCH 2,PIPE:ADIABATIC,CONDENSER WATER LOOP COOLING TOWER BYPASS,CONDENSER WATER LOOP COOLING TOWER BYPASS INLET WATER NODE,CONDENSER WATER LOOP COOLING TOWER BYPASS OUTLET WATER NODE,Pipe Nodes
 Component Set,33,BRANCH,CONDENSER WATER LOOP SUPPLY OUTLET BRANCH,PIPE:ADIABATIC,CONDENSER WATER LOOP SUPPLY OUTLET,CONDENSER WATER LOOP SUPPLY OUTLET INLET WATER NODE,CONDENSER WATER LOOP SUPPLY OUTLET NODE,Pipe Nodes
 Component Set,34,BRANCH,CONDENSER WATER LOOP DEMAND INLET BRANCH,PIPE:ADIABATIC,CONDENSER WATER LOOP DEMAND INLET,CONDENSER WATER LOOP DEMAND INLET NODE,CONDENSER WATER LOOP DEMAND INLET OUTLET WATER NODE,Pipe Nodes
 Component Set,35,BRANCH,CONDENSER WATER LOOP DEMAND BRANCH 1,PIPE:ADIABATIC,CONDENSER WATER LOOP CHILLER BYPASS,CONDENSER WATER LOOP CHILLER BYPASS INLET WATER NODE,CONDENSER WATER LOOP CHILLER BYPASS OUTLET WATER NODE,Pipe Nodes
 Component Set,36,BRANCH,CONDENSER WATER LOOP DEMAND BRANCH 2,CHILLER:ELECTRIC:EIR,90.1-2013 WATERCOOLED  ROTARY SCREW CHILLER 0 2766TONS 0.6KW/TON,90.1-2013 WATERCOOLED  ROTARY SCREW CHILLER 0 DEMAND INLET WATER NODE,90.1-2013 WATERCOOLED  ROTARY SCREW CHILLER 0 DEMAND OUTLET WATER NODE,Condenser Water Nodes
 Component Set,37,BRANCH,CONDENSER WATER LOOP DEMAND BYPASS BRANCH,PIPE:ADIABATIC,CONDENSER WATER LOOP DEMAND BYPASS PIPE,CONDENSER WATER LOOP DEMAND BYPASS PIPE INLET NODE,CONDENSER WATER LOOP DEMAND BYPASS PIPE OUTLET NODE,Pipe Nodes
 Component Set,38,BRANCH,CONDENSER WATER LOOP DEMAND OUTLET BRANCH,PIPE:ADIABATIC,CONDENSER WATER LOOP DEMAND OUTLET,CONDENSER WATER LOOP DEMAND OUTLET INLET WATER NODE,CONDENSER WATER LOOP DEMAND OUTLET NODE,Pipe Nodes
 Component Set,39,BRANCH,FULLSERVICERESTAURANT KITCHEN - 90.1-2013 SERVICE WATER BOOSTER LOOP SUPPLY INLET BRANCH,HEATEXCHANGER:FLUIDTOFLUID,HX FOR BOOSTER WATER HEATING,FULLSERVICERESTAURANT KITCHEN - 90.1-2013 SERVICE WATER BOOSTER LOOP SUPPLY INLET NODE,BOOSTER WATER LOOP PUMP INLET WATER NODE,Loop Supply Side Plant Nodes
 Component Set,40,BRANCH,FULLSERVICERESTAURANT KITCHEN - 90.1-2013 SERVICE WATER BOOSTER LOOP SUPPLY INLET BRANCH,PUMP:VARIABLESPEED,BOOSTER WATER LOOP PUMP,BOOSTER WATER LOOP PUMP INLET WATER NODE,BOOSTER WATER LOOP PUMP OUTLET WATER NODE,Water Nodes
 Component Set,41,BRANCH,FULLSERVICERESTAURANT KITCHEN - 90.1-2013 SERVICE WATER BOOSTER LOOP SUPPLY BRANCH 1,WATERHEATER:MIXED,6.0GAL ELECTRICITY BOOSTER WATER HEATER - 1100KBTU/HR 1.0 THERM EFF,6.0GAL ELECTRICITY BOOSTER WATER HEATER - 1100KBTU/HR SUPPLY INLET WATER NODE,6.0GAL ELECTRICITY BOOSTER WATER HEATER - 1100KBTU/HR SUPPLY OUTLET WATER NODE,Use Side Water Nodes
 Component Set,42,BRANCH,FULLSERVICERESTAURANT KITCHEN - 90.1-2013 SERVICE WATER BOOSTER LOOP SUPPLY BRANCH 2,PIPE:ADIABATIC,PIPE ADIABATIC 5,PIPE ADIABATIC 5 INLET WATER NODE,PIPE ADIABATIC 5 OUTLET WATER NODE,Pipe Nodes
 Component Set,43,BRANCH,FULLSERVICERESTAURANT KITCHEN - 90.1-2013 SERVICE WATER BOOSTER LOOP SUPPLY OUTLET BRANCH,PIPE:ADIABATIC,PIPE ADIABATIC 7,PIPE ADIABATIC 7 INLET WATER NODE,FULLSERVICERESTAURANT KITCHEN - 90.1-2013 SERVICE WATER BOOSTER LOOP SUPPLY OUTLET NODE,Pipe Nodes
 Component Set,44,BRANCH,FULLSERVICERESTAURANT KITCHEN - 90.1-2013 SERVICE WATER BOOSTER LOOP DEMAND INLET BRANCH,PIPE:ADIABATIC,PIPE ADIABATIC 8,FULLSERVICERESTAURANT KITCHEN - 90.1-2013 SERVICE WATER BOOSTER LOOP DEMAND INLET NODE,PIPE ADIABATIC 8 OUTLET WATER NODE,Pipe Nodes
 Component Set,45,BRANCH,FULLSERVICERESTAURANT KITCHEN - 90.1-2013 SERVICE WATER BOOSTER LOOP DEMAND BRANCH 1,PIPE:ADIABATIC,PIPE ADIABATIC 6,PIPE ADIABATIC 6 INLET WATER NODE,PIPE ADIABATIC 6 OUTLET WATER NODE,Pipe Nodes
 Component Set,46,BRANCH,FULLSERVICERESTAURANT KITCHEN - 90.1-2013 SERVICE WATER BOOSTER LOOP DEMAND BRANCH 2,WATERUSE:CONNECTIONS,BOOSTER FULLSERVICERESTAURANT KITCHEN - 90.1-2013 WUC 90.91GPM AT 180F,BOOSTER FULLSERVICERESTAURANT KITCHEN - 90.1-2013 WUC 90.91GPM AT 180F INLET WATER NODE,BOOSTER FULLSERVICERESTAURANT KITCHEN - 90.1-2013 WUC 90.91GPM AT 180F OUTLET WATER NODE,DHW Nodes
 Component Set,47,BRANCH,FULLSERVICERESTAURANT KITCHEN - 90.1-2013 SERVICE WATER BOOSTER LOOP DEMAND BYPASS BRANCH,PIPE:ADIABATIC,FULLSERVICERESTAURANT KITCHEN - 90.1-2013 SERVICE WATER BOOSTER LOOP DEMAND BYPASS PIPE,FULLSERVICERESTAURANT KITCHEN - 90.1-2013 SERVICE WATER BOOSTER LOOP DEMAND BYPASS PIPE INLET NODE,FULLSERVICERESTAURANT KITCHEN - 90.1-2013 SERVICE WATER BOOSTER LOOP DEMAND BYPASS PIPE OUTLET NODE,Pipe Nodes
 Component Set,48,BRANCH,FULLSERVICERESTAURANT KITCHEN - 90.1-2013 SERVICE WATER BOOSTER LOOP DEMAND OUTLET BRANCH,PIPE:ADIABATIC,PIPE ADIABATIC 9,PIPE ADIABATIC 9 INLET WATER NODE,FULLSERVICERESTAURANT KITCHEN - 90.1-2013 SERVICE WATER BOOSTER LOOP DEMAND OUTLET NODE,Pipe Nodes
 Component Set,49,BRANCH,FULLSERVICERESTAURANT KITCHEN - 90.1-2013 SERVICE WATER LOOP SUPPLY INLET BRANCH,PUMP:VARIABLESPEED,FULLSERVICERESTAURANT KITCHEN - 90.1-2013 SERVICE WATER LOOP WATER MAINS PRESSURE DRIVEN,FULLSERVICERESTAURANT KITCHEN - 90.1-2013 SERVICE WATER LOOP SUPPLY INLET NODE,FULLSERVICERESTAURANT KITCHEN - 90.1-2013 SERVICE WATER LOOP WATER MAINS PRESSURE DRIVEN OUTLET WATER NODE,Water Nodes
 Component Set,50,BRANCH,FULLSERVICERESTAURANT KITCHEN - 90.1-2013 SERVICE WATER LOOP SUPPLY BRANCH 1,WATERHEATER:MIXED,5727GAL NATURALGAS WATER HEATER - 5727KBTU/HR 0.808 THERM EFF,5727GAL NATURALGAS WATER HEATER - 5727KBTU/HR SUPPLY INLET WATER NODE,5727GAL NATURALGAS WATER HEATER - 5727KBTU/HR SUPPLY OUTLET WATER NODE,Use Side Water Nodes
 Component Set,51,BRANCH,FULLSERVICERESTAURANT KITCHEN - 90.1-2013 SERVICE WATER LOOP SUPPLY BRANCH 2,PIPE:ADIABATIC,PIPE ADIABATIC 1,PIPE ADIABATIC 1 INLET WATER NODE,PIPE ADIABATIC 1 OUTLET WATER NODE,Pipe Nodes
 Component Set,52,BRANCH,FULLSERVICERESTAURANT KITCHEN - 90.1-2013 SERVICE WATER LOOP SUPPLY OUTLET BRANCH,PIPE:ADIABATIC,PIPE ADIABATIC 3,PIPE ADIABATIC 3 INLET WATER NODE,FULLSERVICERESTAURANT KITCHEN - 90.1-2013 SERVICE WATER LOOP SUPPLY OUTLET NODE,Pipe Nodes
 Component Set,53,BRANCH,FULLSERVICERESTAURANT KITCHEN - 90.1-2013 SERVICE WATER LOOP DEMAND INLET BRANCH,PIPE:INDOOR,FULLSERVICERESTAURANT KITCHEN - 90.1-2013 SERVICE WATER LOOP PIPE 20.0FT,FULLSERVICERESTAURANT KITCHEN - 90.1-2013 SERVICE WATER LOOP DEMAND INLET NODE,FULLSERVICERESTAURANT KITCHEN - 90.1-2013 SERVICE WATER LOOP PIPE 20.0FT OUTLET WATER NODE,Pipe Nodes
 Component Set,54,BRANCH,FULLSERVICERESTAURANT KITCHEN - 90.1-2013 SERVICE WATER LOOP DEMAND BRANCH 1,PIPE:ADIABATIC,PIPE ADIABATIC 2,PIPE ADIABATIC 2 INLET WATER NODE,PIPE ADIABATIC 2 OUTLET WATER NODE,Pipe Nodes
 Component Set,55,BRANCH,FULLSERVICERESTAURANT KITCHEN - 90.1-2013 SERVICE WATER LOOP DEMAND BRANCH 2,WATERUSE:CONNECTIONS,FULLSERVICERESTAURANT KITCHEN - 90.1-2013 WUC 60.61GPM AT 140F,FULLSERVICERESTAURANT KITCHEN - 90.1-2013 WUC 60.61GPM AT 140F INLET WATER NODE,FULLSERVICERESTAURANT KITCHEN - 90.1-2013 WUC 60.61GPM AT 140F OUTLET WATER NODE,DHW Nodes
 Component Set,56,BRANCH,FULLSERVICERESTAURANT KITCHEN - 90.1-2013 SERVICE WATER LOOP DEMAND BRANCH 3,HEATEXCHANGER:FLUIDTOFLUID,HX FOR BOOSTER WATER HEATING,HX FOR BOOSTER WATER HEATING DEMAND INLET WATER NODE,MAINS WATER MAKEUP FOR SWH BOOSTER INLET WATER NODE,Loop Demand Side Plant Nodes
 Component Set,57,BRANCH,FULLSERVICERESTAURANT KITCHEN - 90.1-2013 SERVICE WATER LOOP DEMAND BRANCH 3,PLANTCOMPONENT:TEMPERATURESOURCE,MAINS WATER MAKEUP FOR SWH BOOSTER,MAINS WATER MAKEUP FOR SWH BOOSTER INLET WATER NODE,MAINS WATER MAKEUP FOR SWH BOOSTER OUTLET WATER NODE,Chilled Water Nodes
 Component Set,58,BRANCH,FULLSERVICERESTAURANT KITCHEN - 90.1-2013 SERVICE WATER LOOP DEMAND BYPASS BRANCH,PIPE:ADIABATIC,FULLSERVICERESTAURANT KITCHEN - 90.1-2013 SERVICE WATER LOOP DEMAND BYPASS PIPE,FULLSERVICERESTAURANT KITCHEN - 90.1-2013 SERVICE WATER LOOP DEMAND BYPASS PIPE INLET NODE,FULLSERVICERESTAURANT KITCHEN - 90.1-2013 SERVICE WATER LOOP DEMAND BYPASS PIPE OUTLET NODE,Pipe Nodes
 Component Set,59,BRANCH,FULLSERVICERESTAURANT KITCHEN - 90.1-2013 SERVICE WATER LOOP DEMAND OUTLET BRANCH,PIPE:ADIABATIC,PIPE ADIABATIC 4,PIPE ADIABATIC 4 INLET WATER NODE,FULLSERVICERESTAURANT KITCHEN - 90.1-2013 SERVICE WATER LOOP DEMAND OUTLET NODE,Pipe Nodes
 Component Set,60,BRANCH,HOT WATER LOOP SUPPLY INLET BRANCH,PUMP:VARIABLESPEED,HOT WATER LOOP PUMP,HOT WATER LOOP SUPPLY INLET NODE,HOT WATER LOOP PUMP OUTLET WATER NODE,Water Nodes
 Component Set,61,BRANCH,HOT WATER LOOP SUPPLY BRANCH 1,BOILER:HOTWATER,BOILER 16089KBTU/HR 0.8 THERMAL EFF,BOILER INLET WATER NODE,BOILER OUTLET WATER NODE,Hot Water Nodes
 Component Set,62,BRANCH,HOT WATER LOOP SUPPLY BRANCH 2,PIPE:ADIABATIC,HOT WATER LOOP SUPPLY EQUIPMENT BYPASS,HOT WATER LOOP SUPPLY EQUIPMENT BYPASS INLET WATER NODE,HOT WATER LOOP SUPPLY EQUIPMENT BYPASS OUTLET WATER NODE,Pipe Nodes
 Component Set,63,BRANCH,HOT WATER LOOP SUPPLY OUTLET BRANCH,PIPE:ADIABATIC,HOT WATER LOOP SUPPLY OUTLET,HOT WATER LOOP SUPPLY OUTLET INLET WATER NODE,HOT WATER LOOP SUPPLY OUTLET NODE,Pipe Nodes
 Component Set,64,BRANCH,HOT WATER LOOP DEMAND INLET BRANCH,PIPE:ADIABATIC,HOT WATER LOOP DEMAND INLET,HOT WATER LOOP DEMAND INLET NODE,HOT WATER LOOP DEMAND INLET OUTLET WATER NODE,Pipe Nodes
 Component Set,65,BRANCH,HOT WATER LOOP DEMAND BRANCH 1,PIPE:ADIABATIC,HOT WATER LOOP COIL BYPASS,HOT WATER LOOP COIL BYPASS INLET WATER NODE,HOT WATER LOOP COIL BYPASS OUTLET WATER NODE,Pipe Nodes
 Component Set,66,BRANCH,HOT WATER LOOP DEMAND BRANCH 2,COIL:HEATING:WATER,1 ZONE VAV MAIN HTG COIL,1 ZONE VAV MAIN HTG COIL INLET WATER NODE,1 ZONE VAV MAIN HTG COIL OUTLET WATER NODE,Water Nodes
 Component Set,67,BRANCH,HOT WATER LOOP DEMAND BRANCH 3,COIL:HEATING:WATER,BUILDING STORY 1 THERMALZONE REHEAT COIL,BUILDING STORY 1 THERMALZONE REHEAT COIL INLET WATER NODE,BUILDING STORY 1 THERMALZONE REHEAT COIL OUTLET WATER NODE,Water Nodes
 Component Set,68,BRANCH,HOT WATER LOOP DEMAND BRANCH 4,COIL:HEATING:WATER,1 ZONE VAV 1 MAIN HTG COIL,1 ZONE VAV 1 MAIN HTG COIL INLET WATER NODE,1 ZONE VAV 1 MAIN HTG COIL OUTLET WATER NODE,Water Nodes
 Component Set,69,BRANCH,HOT WATER LOOP DEMAND BRANCH 5,COIL:HEATING:WATER,BUILDING STORY 2 THERMALZONE REHEAT COIL,BUILDING STORY 2 THERMALZONE REHEAT COIL INLET WATER NODE,BUILDING STORY 2 THERMALZONE REHEAT COIL OUTLET WATER NODE,Water Nodes
 Component Set,70,BRANCH,HOT WATER LOOP DEMAND BRANCH 6,COIL:HEATING:WATER,1 ZONE VAV 2 MAIN HTG COIL,1 ZONE VAV 2 MAIN HTG COIL INLET WATER NODE,1 ZONE VAV 2 MAIN HTG COIL OUTLET WATER NODE,Water Nodes
 Component Set,71,BRANCH,HOT WATER LOOP DEMAND BRANCH 7,COIL:HEATING:WATER,BUILDING STORY 3 THERMALZONE REHEAT COIL,BUILDING STORY 3 THERMALZONE REHEAT COIL INLET WATER NODE,BUILDING STORY 3 THERMALZONE REHEAT COIL OUTLET WATER NODE,Water Nodes
 Component Set,72,BRANCH,HOT WATER LOOP DEMAND BRANCH 8,COIL:HEATING:WATER,1 ZONE VAV 3 MAIN HTG COIL,1 ZONE VAV 3 MAIN HTG COIL INLET WATER NODE,1 ZONE VAV 3 MAIN HTG COIL OUTLET WATER NODE,Water Nodes
 Component Set,73,BRANCH,HOT WATER LOOP DEMAND BRANCH 9,COIL:HEATING:WATER,BUILDING STORY 4 THERMALZONE REHEAT COIL,BUILDING STORY 4 THERMALZONE REHEAT COIL INLET WATER NODE,BUILDING STORY 4 THERMALZONE REHEAT COIL OUTLET WATER NODE,Water Nodes
 Component Set,74,BRANCH,HOT WATER LOOP DEMAND BYPASS BRANCH,PIPE:ADIABATIC,HOT WATER LOOP DEMAND BYPASS PIPE,HOT WATER LOOP DEMAND BYPASS PIPE INLET NODE,HOT WATER LOOP DEMAND BYPASS PIPE OUTLET NODE,Pipe Nodes
 Component Set,75,BRANCH,HOT WATER LOOP DEMAND OUTLET BRANCH,PIPE:ADIABATIC,HOT WATER LOOP DEMAND OUTLET,HOT WATER LOOP DEMAND OUTLET INLET WATER NODE,HOT WATER LOOP DEMAND OUTLET NODE,Pipe Nodes
 Component Set,76,BRANCH,OFFICE SHARED SERVICE WATER LOOP SUPPLY INLET BRANCH,PUMP:CONSTANTSPEED,OFFICE SHARED SERVICE WATER LOOP CIRCULATOR PUMP,OFFICE SHARED SERVICE WATER LOOP SUPPLY INLET NODE,OFFICE SHARED SERVICE WATER LOOP CIRCULATOR PUMP OUTLET WATER NODE,Water Nodes
 Component Set,77,BRANCH,OFFICE SHARED SERVICE WATER LOOP SUPPLY BRANCH 1,WATERHEATER:MIXED,113GAL ELECTRICITY WATER HEATER - 113KBTU/HR 1.0 THERM EFF,113GAL ELECTRICITY WATER HEATER - 113KBTU/HR SUPPLY INLET WATER NODE,113GAL ELECTRICITY WATER HEATER - 113KBTU/HR SUPPLY OUTLET WATER NODE,Use Side Water Nodes
 Component Set,78,BRANCH,OFFICE SHARED SERVICE WATER LOOP SUPPLY BRANCH 2,PIPE:ADIABATIC,PIPE ADIABATIC 10,PIPE ADIABATIC 10 INLET WATER NODE,PIPE ADIABATIC 10 OUTLET WATER NODE,Pipe Nodes
 Component Set,79,BRANCH,OFFICE SHARED SERVICE WATER LOOP SUPPLY OUTLET BRANCH,PIPE:ADIABATIC,PIPE ADIABATIC 12,PIPE ADIABATIC 12 INLET WATER NODE,OFFICE SHARED SERVICE WATER LOOP SUPPLY OUTLET NODE,Pipe Nodes
 Component Set,80,BRANCH,OFFICE SHARED SERVICE WATER LOOP DEMAND INLET BRANCH,PIPE:INDOOR,OFFICE SHARED SERVICE WATER LOOP PIPE 887.2854201472547FT,OFFICE SHARED SERVICE WATER LOOP DEMAND INLET NODE,OFFICE SHARED SERVICE WATER LOOP PIPE 887.2854201472547FT OUTLET WATER NODE,Pipe Nodes
 Component Set,81,BRANCH,OFFICE SHARED SERVICE WATER LOOP DEMAND BRANCH 1,PIPE:ADIABATIC,PIPE ADIABATIC 11,PIPE ADIABATIC 11 INLET WATER NODE,PIPE ADIABATIC 11 OUTLET WATER NODE,Pipe Nodes
 Component Set,82,BRANCH,OFFICE SHARED SERVICE WATER LOOP DEMAND BRANCH 2,WATERUSE:CONNECTIONS,OFFICE WHOLEBUILDING - LG OFFICE - 90.1-2013 WUC 3.15GPM AT 140F,OFFICE WHOLEBUILDING - LG OFFICE - 90.1-2013 WUC 3.15GPM AT 140F INLET WATER NODE,OFFICE WHOLEBUILDING - LG OFFICE - 90.1-2013 WUC 3.15GPM AT 140F OUTLET WATER NODE,DHW Nodes
 Component Set,83,BRANCH,OFFICE SHARED SERVICE WATER LOOP DEMAND BYPASS BRANCH,PIPE:ADIABATIC,OFFICE SHARED SERVICE WATER LOOP DEMAND BYPASS PIPE,OFFICE SHARED SERVICE WATER LOOP DEMAND BYPASS PIPE INLET NODE,OFFICE SHARED SERVICE WATER LOOP DEMAND BYPASS PIPE OUTLET NODE,Pipe Nodes
 Component Set,84,BRANCH,OFFICE SHARED SERVICE WATER LOOP DEMAND OUTLET BRANCH,PIPE:ADIABATIC,PIPE ADIABATIC 13,PIPE ADIABATIC 13 INLET WATER NODE,OFFICE SHARED SERVICE WATER LOOP DEMAND OUTLET NODE,Pipe Nodes
 Component Set,85,ZONEHVAC:AIRDISTRIBUTIONUNIT,ADU BUILDING STORY 1 THERMALZONE VAV TERMINAL,AIRTERMINAL:SINGLEDUCT:VAV:REHEAT,BUILDING STORY 1 THERMALZONE VAV TERMINAL,BUILDING STORY 1 THERMALZONE VAV TERMINAL INLET AIR NODE,BUILDING STORY 1 THERMALZONE VAV TERMINAL OUTLET AIR NODE,Air Nodes
 Component Set,86,ZONEHVAC:AIRDISTRIBUTIONUNIT,ADU BUILDING STORY 2 THERMALZONE VAV TERMINAL,AIRTERMINAL:SINGLEDUCT:VAV:REHEAT,BUILDING STORY 2 THERMALZONE VAV TERMINAL,BUILDING STORY 2 THERMALZONE VAV TERMINAL INLET AIR NODE,BUILDING STORY 2 THERMALZONE VAV TERMINAL OUTLET AIR NODE,Air Nodes
 Component Set,87,ZONEHVAC:AIRDISTRIBUTIONUNIT,ADU BUILDING STORY 3 THERMALZONE VAV TERMINAL,AIRTERMINAL:SINGLEDUCT:VAV:REHEAT,BUILDING STORY 3 THERMALZONE VAV TERMINAL,BUILDING STORY 3 THERMALZONE VAV TERMINAL INLET AIR NODE,BUILDING STORY 3 THERMALZONE VAV TERMINAL OUTLET AIR NODE,Air Nodes
 Component Set,88,ZONEHVAC:AIRDISTRIBUTIONUNIT,ADU BUILDING STORY 4 THERMALZONE VAV TERMINAL,AIRTERMINAL:SINGLEDUCT:VAV:REHEAT,BUILDING STORY 4 THERMALZONE VAV TERMINAL,BUILDING STORY 4 THERMALZONE VAV TERMINAL INLET AIR NODE,BUILDING STORY 4 THERMALZONE VAV TERMINAL OUTLET AIR NODE,Air Nodes
 Component Set,89,AIRTERMINAL:SINGLEDUCT:VAV:REHEAT,BUILDING STORY 1 THERMALZONE VAV TERMINAL,COIL:HEATING:WATER,BUILDING STORY 1 THERMALZONE REHEAT COIL,BUILDING STORY 1 THERMALZONE VAV TERMINAL DAMPER OUTLET,BUILDING STORY 1 THERMALZONE VAV TERMINAL OUTLET AIR NODE,Air Nodes
 Component Set,90,AIRTERMINAL:SINGLEDUCT:VAV:REHEAT,BUILDING STORY 2 THERMALZONE VAV TERMINAL,COIL:HEATING:WATER,BUILDING STORY 2 THERMALZONE REHEAT COIL,BUILDING STORY 2 THERMALZONE VAV TERMINAL DAMPER OUTLET,BUILDING STORY 2 THERMALZONE VAV TERMINAL OUTLET AIR NODE,Air Nodes
 Component Set,91,AIRTERMINAL:SINGLEDUCT:VAV:REHEAT,BUILDING STORY 3 THERMALZONE VAV TERMINAL,COIL:HEATING:WATER,BUILDING STORY 3 THERMALZONE REHEAT COIL,BUILDING STORY 3 THERMALZONE VAV TERMINAL DAMPER OUTLET,BUILDING STORY 3 THERMALZONE VAV TERMINAL OUTLET AIR NODE,Air Nodes
 Component Set,92,AIRTERMINAL:SINGLEDUCT:VAV:REHEAT,BUILDING STORY 4 THERMALZONE VAV TERMINAL,COIL:HEATING:WATER,BUILDING STORY 4 THERMALZONE REHEAT COIL,BUILDING STORY 4 THERMALZONE VAV TERMINAL DAMPER OUTLET,BUILDING STORY 4 THERMALZONE VAV TERMINAL OUTLET AIR NODE,Air Nodes
 Component Set,93,AIRLOOPHVAC:OUTDOORAIRSYSTEM,1 ZONE VAV OA SYSTEM,OUTDOORAIR:MIXER,1 ZONE VAV OA SYSTEM OUTDOOR AIR MIXER,1 ZONE VAV OUTDOOR AIR NODE,1 ZONE VAV MIXED AIR NODE,Air Nodes
 Component Set,94,AIRLOOPHVAC:OUTDOORAIRSYSTEM,1 ZONE VAV 1 OA SYSTEM,OUTDOORAIR:MIXER,1 ZONE VAV 1 OA SYSTEM OUTDOOR AIR MIXER,1 ZONE VAV 1 OUTDOOR AIR NODE,1 ZONE VAV 1 MIXED AIR NODE,Air Nodes
 Component Set,95,AIRLOOPHVAC:OUTDOORAIRSYSTEM,1 ZONE VAV 2 OA SYSTEM,OUTDOORAIR:MIXER,1 ZONE VAV 2 OA SYSTEM OUTDOOR AIR MIXER,1 ZONE VAV 2 OUTDOOR AIR NODE,1 ZONE VAV 2 MIXED AIR NODE,Air Nodes
 Component Set,96,AIRLOOPHVAC:OUTDOORAIRSYSTEM,1 ZONE VAV 3 OA SYSTEM,OUTDOORAIR:MIXER,1 ZONE VAV 3 OA SYSTEM OUTDOOR AIR MIXER,1 ZONE VAV 3 OUTDOOR AIR NODE,1 ZONE VAV 3 MIXED AIR NODE,Air Nodes
! ===============================================================
! <# Plant Loops>,<Number of Plant Loops>
 #Plant Loops,6
! <Plant Loop>,<Plant Loop Name>,<Loop Type>,<Inlet Node Name>,<Outlet Node Name>,<Branch List>,<Connector List>
! <Plant Loop Connector>,<Connector Type>,<Connector Name>,<Loop Name>,<Loop Type>,<Number of Inlets/Outlets>
! <Plant Loop Connector Branches>,<Connector Node Count>,<Connector Type>,<Connector Name>,<Inlet Branch>,<Outlet Branch>,<Loop Name>,<Loop Type>
! <Plant Loop Connector Nodes>,<Connector Node Count>,<Connector Type>,<Connector Name>,<Inlet Node>,<Outlet Node>,<Loop Name>,<Loop Type>
! <Plant Loop Supply Connection>,<Plant Loop Name>,<Supply Side Outlet Node Name>,<Demand Side Inlet Node Name>
! <Plant Loop Return Connection>,<Plant Loop Name>,<Demand Side Outlet Node Name>,<Supply Side Inlet Node Name>
 Plant Loop,CHILLED WATER LOOP,Demand,CHILLED WATER LOOP DEMAND INLET NODE,CHILLED WATER LOOP DEMAND OUTLET NODE,CHILLED WATER LOOP DEMAND BRANCHES,CHILLED WATER LOOP DEMAND CONNECTOR LIST
   Plant Loop Connector,Splitter,CHILLED WATER LOOP DEMAND SPLITTER,CHILLED WATER LOOP,Demand,6
     Plant Loop Connector Branches,1,Splitter,CHILLED WATER LOOP DEMAND SPLITTER,CHILLED WATER LOOP DEMAND INLET BRANCH,CHILLED WATER LOOP DEMAND BRANCH 1,CHILLED WATER LOOP,Demand
     Plant Loop Connector Nodes,   1,Splitter,CHILLED WATER LOOP DEMAND SPLITTER,CHILLED WATER LOOP SECONDARY PUMP OUTLET WATER NODE,CHILLED WATER LOOP COIL BYPASS INLET WATER NODE,CHILLED WATER LOOP,Demand
     Plant Loop Connector Branches,2,Splitter,CHILLED WATER LOOP DEMAND SPLITTER,CHILLED WATER LOOP DEMAND INLET BRANCH,CHILLED WATER LOOP DEMAND BRANCH 2,CHILLED WATER LOOP,Demand
     Plant Loop Connector Nodes,   2,Splitter,CHILLED WATER LOOP DEMAND SPLITTER,CHILLED WATER LOOP SECONDARY PUMP OUTLET WATER NODE,1 ZONE VAV CLG COIL INLET WATER NODE,CHILLED WATER LOOP,Demand
     Plant Loop Connector Branches,3,Splitter,CHILLED WATER LOOP DEMAND SPLITTER,CHILLED WATER LOOP DEMAND INLET BRANCH,CHILLED WATER LOOP DEMAND BRANCH 3,CHILLED WATER LOOP,Demand
     Plant Loop Connector Nodes,   3,Splitter,CHILLED WATER LOOP DEMAND SPLITTER,CHILLED WATER LOOP SECONDARY PUMP OUTLET WATER NODE,1 ZONE VAV 1 CLG COIL INLET WATER NODE,CHILLED WATER LOOP,Demand
     Plant Loop Connector Branches,4,Splitter,CHILLED WATER LOOP DEMAND SPLITTER,CHILLED WATER LOOP DEMAND INLET BRANCH,CHILLED WATER LOOP DEMAND BRANCH 4,CHILLED WATER LOOP,Demand
     Plant Loop Connector Nodes,   4,Splitter,CHILLED WATER LOOP DEMAND SPLITTER,CHILLED WATER LOOP SECONDARY PUMP OUTLET WATER NODE,1 ZONE VAV 2 CLG COIL INLET WATER NODE,CHILLED WATER LOOP,Demand
     Plant Loop Connector Branches,5,Splitter,CHILLED WATER LOOP DEMAND SPLITTER,CHILLED WATER LOOP DEMAND INLET BRANCH,CHILLED WATER LOOP DEMAND BRANCH 5,CHILLED WATER LOOP,Demand
     Plant Loop Connector Nodes,   5,Splitter,CHILLED WATER LOOP DEMAND SPLITTER,CHILLED WATER LOOP SECONDARY PUMP OUTLET WATER NODE,1 ZONE VAV 3 CLG COIL INLET WATER NODE,CHILLED WATER LOOP,Demand
     Plant Loop Connector Branches,6,Splitter,CHILLED WATER LOOP DEMAND SPLITTER,CHILLED WATER LOOP DEMAND INLET BRANCH,CHILLED WATER LOOP DEMAND BYPASS BRANCH,CHILLED WATER LOOP,Demand
     Plant Loop Connector Nodes,   6,Splitter,CHILLED WATER LOOP DEMAND SPLITTER,CHILLED WATER LOOP SECONDARY PUMP OUTLET WATER NODE,CHILLED WATER LOOP DEMAND BYPASS PIPE INLET NODE,CHILLED WATER LOOP,Demand
   Plant Loop Connector,Mixer,CHILLED WATER LOOP DEMAND MIXER,CHILLED WATER LOOP,Demand,6
     Plant Loop Connector Branches,1,Mixer,CHILLED WATER LOOP DEMAND MIXER,CHILLED WATER LOOP DEMAND BRANCH 1,CHILLED WATER LOOP DEMAND OUTLET BRANCH,CHILLED WATER LOOP,Demand
     Plant Loop Connector Nodes,   1,Mixer,CHILLED WATER LOOP DEMAND MIXER,CHILLED WATER LOOP COIL BYPASS OUTLET WATER NODE,CHILLED WATER LOOP DEMAND OUTLET INLET WATER NODE,CHILLED WATER LOOP,Demand
     Plant Loop Connector Branches,2,Mixer,CHILLED WATER LOOP DEMAND MIXER,CHILLED WATER LOOP DEMAND BRANCH 2,CHILLED WATER LOOP DEMAND OUTLET BRANCH,CHILLED WATER LOOP,Demand
     Plant Loop Connector Nodes,   2,Mixer,CHILLED WATER LOOP DEMAND MIXER,1 ZONE VAV CLG COIL OUTLET WATER NODE,CHILLED WATER LOOP DEMAND OUTLET INLET WATER NODE,CHILLED WATER LOOP,Demand
     Plant Loop Connector Branches,3,Mixer,CHILLED WATER LOOP DEMAND MIXER,CHILLED WATER LOOP DEMAND BRANCH 3,CHILLED WATER LOOP DEMAND OUTLET BRANCH,CHILLED WATER LOOP,Demand
     Plant Loop Connector Nodes,   3,Mixer,CHILLED WATER LOOP DEMAND MIXER,1 ZONE VAV 1 CLG COIL OUTLET WATER NODE,CHILLED WATER LOOP DEMAND OUTLET INLET WATER NODE,CHILLED WATER LOOP,Demand
     Plant Loop Connector Branches,4,Mixer,CHILLED WATER LOOP DEMAND MIXER,CHILLED WATER LOOP DEMAND BRANCH 4,CHILLED WATER LOOP DEMAND OUTLET BRANCH,CHILLED WATER LOOP,Demand
     Plant Loop Connector Nodes,   4,Mixer,CHILLED WATER LOOP DEMAND MIXER,1 ZONE VAV 2 CLG COIL OUTLET WATER NODE,CHILLED WATER LOOP DEMAND OUTLET INLET WATER NODE,CHILLED WATER LOOP,Demand
     Plant Loop Connector Branches,5,Mixer,CHILLED WATER LOOP DEMAND MIXER,CHILLED WATER LOOP DEMAND BRANCH 5,CHILLED WATER LOOP DEMAND OUTLET BRANCH,CHILLED WATER LOOP,Demand
     Plant Loop Connector Nodes,   5,Mixer,CHILLED WATER LOOP DEMAND MIXER,1 ZONE VAV 3 CLG COIL OUTLET WATER NODE,CHILLED WATER LOOP DEMAND OUTLET INLET WATER NODE,CHILLED WATER LOOP,Demand
     Plant Loop Connector Branches,6,Mixer,CHILLED WATER LOOP DEMAND MIXER,CHILLED WATER LOOP DEMAND BYPASS BRANCH,CHILLED WATER LOOP DEMAND OUTLET BRANCH,CHILLED WATER LOOP,Demand
     Plant Loop Connector Nodes,   6,Mixer,CHILLED WATER LOOP DEMAND MIXER,CHILLED WATER LOOP DEMAND BYPASS PIPE OUTLET NODE,CHILLED WATER LOOP DEMAND OUTLET INLET WATER NODE,CHILLED WATER LOOP,Demand
 Plant Loop,CHILLED WATER LOOP,Supply,CHILLED WATER LOOP SUPPLY INLET NODE,CHILLED WATER LOOP SUPPLY OUTLET NODE,CHILLED WATER LOOP SUPPLY BRANCHES,CHILLED WATER LOOP SUPPLY CONNECTOR LIST
   Plant Loop Connector,Splitter,CHILLED WATER LOOP SUPPLY SPLITTER,CHILLED WATER LOOP,Supply,2
     Plant Loop Connector Branches,1,Splitter,CHILLED WATER LOOP SUPPLY SPLITTER,CHILLED WATER LOOP SUPPLY INLET BRANCH,CHILLED WATER LOOP SUPPLY BRANCH 1,CHILLED WATER LOOP,Supply
     Plant Loop Connector Nodes,   1,Splitter,CHILLED WATER LOOP SUPPLY SPLITTER,CHILLED WATER LOOP PRIMARY PUMP OUTLET WATER NODE,90.1-2013 WATERCOOLED  ROTARY SCREW CHILLER 0 SUPPLY INLET WATER NODE,CHILLED WATER LOOP,Supply
     Plant Loop Connector Branches,2,Splitter,CHILLED WATER LOOP SUPPLY SPLITTER,CHILLED WATER LOOP SUPPLY INLET BRANCH,CHILLED WATER LOOP SUPPLY BRANCH 2,CHILLED WATER LOOP,Supply
     Plant Loop Connector Nodes,   2,Splitter,CHILLED WATER LOOP SUPPLY SPLITTER,CHILLED WATER LOOP PRIMARY PUMP OUTLET WATER NODE,CHILLED WATER LOOP CHILLER BYPASS INLET WATER NODE,CHILLED WATER LOOP,Supply
   Plant Loop Connector,Mixer,CHILLED WATER LOOP SUPPLY MIXER,CHILLED WATER LOOP,Supply,2
     Plant Loop Connector Branches,1,Mixer,CHILLED WATER LOOP SUPPLY MIXER,CHILLED WATER LOOP SUPPLY BRANCH 1,CHILLED WATER LOOP SUPPLY OUTLET BRANCH,CHILLED WATER LOOP,Supply
     Plant Loop Connector Nodes,   1,Mixer,CHILLED WATER LOOP SUPPLY MIXER,90.1-2013 WATERCOOLED  ROTARY SCREW CHILLER 0 SUPPLY OUTLET WATER NODE,CHILLED WATER LOOP SUPPLY OUTLET INLET WATER NODE,CHILLED WATER LOOP,Supply
     Plant Loop Connector Branches,2,Mixer,CHILLED WATER LOOP SUPPLY MIXER,CHILLED WATER LOOP SUPPLY BRANCH 2,CHILLED WATER LOOP SUPPLY OUTLET BRANCH,CHILLED WATER LOOP,Supply
     Plant Loop Connector Nodes,   2,Mixer,CHILLED WATER LOOP SUPPLY MIXER,CHILLED WATER LOOP CHILLER BYPASS OUTLET WATER NODE,CHILLED WATER LOOP SUPPLY OUTLET INLET WATER NODE,CHILLED WATER LOOP,Supply
 Plant Loop Supply Connection,CHILLED WATER LOOP,CHILLED WATER LOOP SUPPLY OUTLET NODE,CHILLED WATER LOOP DEMAND INLET NODE
 Plant Loop Return Connection,CHILLED WATER LOOP,CHILLED WATER LOOP DEMAND OUTLET NODE,CHILLED WATER LOOP SUPPLY INLET NODE
 Plant Loop,CONDENSER WATER LOOP,Demand,CONDENSER WATER LOOP DEMAND INLET NODE,CONDENSER WATER LOOP DEMAND OUTLET NODE,CONDENSER WATER LOOP DEMAND BRANCHES,CONDENSER WATER LOOP DEMAND CONNECTOR LIST
   Plant Loop Connector,Splitter,CONDENSER WATER LOOP DEMAND SPLITTER,CONDENSER WATER LOOP,Demand,3
     Plant Loop Connector Branches,1,Splitter,CONDENSER WATER LOOP DEMAND SPLITTER,CONDENSER WATER LOOP DEMAND INLET BRANCH,CONDENSER WATER LOOP DEMAND BRANCH 1,CONDENSER WATER LOOP,Demand
     Plant Loop Connector Nodes,   1,Splitter,CONDENSER WATER LOOP DEMAND SPLITTER,CONDENSER WATER LOOP DEMAND INLET OUTLET WATER NODE,CONDENSER WATER LOOP CHILLER BYPASS INLET WATER NODE,CONDENSER WATER LOOP,Demand
     Plant Loop Connector Branches,2,Splitter,CONDENSER WATER LOOP DEMAND SPLITTER,CONDENSER WATER LOOP DEMAND INLET BRANCH,CONDENSER WATER LOOP DEMAND BRANCH 2,CONDENSER WATER LOOP,Demand
     Plant Loop Connector Nodes,   2,Splitter,CONDENSER WATER LOOP DEMAND SPLITTER,CONDENSER WATER LOOP DEMAND INLET OUTLET WATER NODE,90.1-2013 WATERCOOLED  ROTARY SCREW CHILLER 0 DEMAND INLET WATER NODE,CONDENSER WATER LOOP,Demand
     Plant Loop Connector Branches,3,Splitter,CONDENSER WATER LOOP DEMAND SPLITTER,CONDENSER WATER LOOP DEMAND INLET BRANCH,CONDENSER WATER LOOP DEMAND BYPASS BRANCH,CONDENSER WATER LOOP,Demand
     Plant Loop Connector Nodes,   3,Splitter,CONDENSER WATER LOOP DEMAND SPLITTER,CONDENSER WATER LOOP DEMAND INLET OUTLET WATER NODE,CONDENSER WATER LOOP DEMAND BYPASS PIPE INLET NODE,CONDENSER WATER LOOP,Demand
   Plant Loop Connector,Mixer,CONDENSER WATER LOOP DEMAND MIXER,CONDENSER WATER LOOP,Demand,3
     Plant Loop Connector Branches,1,Mixer,CONDENSER WATER LOOP DEMAND MIXER,CONDENSER WATER LOOP DEMAND BRANCH 1,CONDENSER WATER LOOP DEMAND OUTLET BRANCH,CONDENSER WATER LOOP,Demand
     Plant Loop Connector Nodes,   1,Mixer,CONDENSER WATER LOOP DEMAND MIXER,CONDENSER WATER LOOP CHILLER BYPASS OUTLET WATER NODE,CONDENSER WATER LOOP DEMAND OUTLET INLET WATER NODE,CONDENSER WATER LOOP,Demand
     Plant Loop Connector Branches,2,Mixer,CONDENSER WATER LOOP DEMAND MIXER,CONDENSER WATER LOOP DEMAND BRANCH 2,CONDENSER WATER LOOP DEMAND OUTLET BRANCH,CONDENSER WATER LOOP,Demand
     Plant Loop Connector Nodes,   2,Mixer,CONDENSER WATER LOOP DEMAND MIXER,90.1-2013 WATERCOOLED  ROTARY SCREW CHILLER 0 DEMAND OUTLET WATER NODE,CONDENSER WATER LOOP DEMAND OUTLET INLET WATER NODE,CONDENSER WATER LOOP,Demand
     Plant Loop Connector Branches,3,Mixer,CONDENSER WATER LOOP DEMAND MIXER,CONDENSER WATER LOOP DEMAND BYPASS BRANCH,CONDENSER WATER LOOP DEMAND OUTLET BRANCH,CONDENSER WATER LOOP,Demand
     Plant Loop Connector Nodes,   3,Mixer,CONDENSER WATER LOOP DEMAND MIXER,CONDENSER WATER LOOP DEMAND BYPASS PIPE OUTLET NODE,CONDENSER WATER LOOP DEMAND OUTLET INLET WATER NODE,CONDENSER WATER LOOP,Demand
 Plant Loop,CONDENSER WATER LOOP,Supply,CONDENSER WATER LOOP SUPPLY INLET NODE,CONDENSER WATER LOOP SUPPLY OUTLET NODE,CONDENSER WATER LOOP SUPPLY BRANCHES,CONDENSER WATER LOOP SUPPLY CONNECTOR LIST
   Plant Loop Connector,Splitter,CONDENSER WATER LOOP SUPPLY SPLITTER,CONDENSER WATER LOOP,Supply,2
     Plant Loop Connector Branches,1,Splitter,CONDENSER WATER LOOP SUPPLY SPLITTER,CONDENSER WATER LOOP SUPPLY INLET BRANCH,CONDENSER WATER LOOP SUPPLY BRANCH 1,CONDENSER WATER LOOP,Supply
     Plant Loop Connector Nodes,   1,Splitter,CONDENSER WATER LOOP SUPPLY SPLITTER,CONDENSER WATER LOOP CONSTANT PUMP OUTLET WATER NODE,PROPELLER OR AXIAL VARIABLE SPEED FAN OPEN COOLING TOWER INLET WATER NODE,CONDENSER WATER LOOP,Supply
     Plant Loop Connector Branches,2,Splitter,CONDENSER WATER LOOP SUPPLY SPLITTER,CONDENSER WATER LOOP SUPPLY INLET BRANCH,CONDENSER WATER LOOP SUPPLY BRANCH 2,CONDENSER WATER LOOP,Supply
     Plant Loop Connector Nodes,   2,Splitter,CONDENSER WATER LOOP SUPPLY SPLITTER,CONDENSER WATER LOOP CONSTANT PUMP OUTLET WATER NODE,CONDENSER WATER LOOP COOLING TOWER BYPASS INLET WATER NODE,CONDENSER WATER LOOP,Supply
   Plant Loop Connector,Mixer,CONDENSER WATER LOOP SUPPLY MIXER,CONDENSER WATER LOOP,Supply,2
     Plant Loop Connector Branches,1,Mixer,CONDENSER WATER LOOP SUPPLY MIXER,CONDENSER WATER LOOP SUPPLY BRANCH 1,CONDENSER WATER LOOP SUPPLY OUTLET BRANCH,CONDENSER WATER LOOP,Supply
     Plant Loop Connector Nodes,   1,Mixer,CONDENSER WATER LOOP SUPPLY MIXER,PROPELLER OR AXIAL VARIABLE SPEED FAN OPEN COOLING TOWER OUTLET WATER NODE,CONDENSER WATER LOOP SUPPLY OUTLET INLET WATER NODE,CONDENSER WATER LOOP,Supply
     Plant Loop Connector Branches,2,Mixer,CONDENSER WATER LOOP SUPPLY MIXER,CONDENSER WATER LOOP SUPPLY BRANCH 2,CONDENSER WATER LOOP SUPPLY OUTLET BRANCH,CONDENSER WATER LOOP,Supply
     Plant Loop Connector Nodes,   2,Mixer,CONDENSER WATER LOOP SUPPLY MIXER,CONDENSER WATER LOOP COOLING TOWER BYPASS OUTLET WATER NODE,CONDENSER WATER LOOP SUPPLY OUTLET INLET WATER NODE,CONDENSER WATER LOOP,Supply
 Plant Loop Supply Connection,CONDENSER WATER LOOP,CONDENSER WATER LOOP SUPPLY OUTLET NODE,CONDENSER WATER LOOP DEMAND INLET NODE
 Plant Loop Return Connection,CONDENSER WATER LOOP,CONDENSER WATER LOOP DEMAND OUTLET NODE,CONDENSER WATER LOOP SUPPLY INLET NODE
 Plant Loop,FULLSERVICERESTAURANT KITCHEN - 90.1-2013 SERVICE WATER BOOSTER LOOP,Demand,FULLSERVICERESTAURANT KITCHEN - 90.1-2013 SERVICE WATER BOOSTER LOOP DEMAND INLET NODE,FULLSERVICERESTAURANT KITCHEN - 90.1-2013 SERVICE WATER BOOSTER LOOP DEMAND OUTLET NODE,FULLSERVICERESTAURANT KITCHEN - 90.1-2013 SERVICE WATER BOOSTER LOOP DEMAND BRANCHES,FULLSERVICERESTAURANT KITCHEN - 90.1-2013 SERVICE WATER BOOSTER LOOP DEMAND CONNECTOR LIST
   Plant Loop Connector,Splitter,FULLSERVICERESTAURANT KITCHEN - 90.1-2013 SERVICE WATER BOOSTER LOOP DEMAND SPLITTER,FULLSERVICERESTAURANT KITCHEN - 90.1-2013 SERVICE WATER BOOSTER LOOP,Demand,3
     Plant Loop Connector Branches,1,Splitter,FULLSERVICERESTAURANT KITCHEN - 90.1-2013 SERVICE WATER BOOSTER LOOP DEMAND SPLITTER,FULLSERVICERESTAURANT KITCHEN - 90.1-2013 SERVICE WATER BOOSTER LOOP DEMAND INLET BRANCH,FULLSERVICERESTAURANT KITCHEN - 90.1-2013 SERVICE WATER BOOSTER LOOP DEMAND BRANCH 1,FULLSERVICERESTAURANT KITCHEN - 90.1-2013 SERVICE WATER BOOSTER LOOP,Demand
     Plant Loop Connector Nodes,   1,Splitter,FULLSERVICERESTAURANT KITCHEN - 90.1-2013 SERVICE WATER BOOSTER LOOP DEMAND SPLITTER,PIPE ADIABATIC 8 OUTLET WATER NODE,PIPE ADIABATIC 6 INLET WATER NODE,FULLSERVICERESTAURANT KITCHEN - 90.1-2013 SERVICE WATER BOOSTER LOOP,Demand
     Plant Loop Connector Branches,2,Splitter,FULLSERVICERESTAURANT KITCHEN - 90.1-2013 SERVICE WATER BOOSTER LOOP DEMAND SPLITTER,FULLSERVICERESTAURANT KITCHEN - 90.1-2013 SERVICE WATER BOOSTER LOOP DEMAND INLET BRANCH,FULLSERVICERESTAURANT KITCHEN - 90.1-2013 SERVICE WATER BOOSTER LOOP DEMAND BRANCH 2,FULLSERVICERESTAURANT KITCHEN - 90.1-2013 SERVICE WATER BOOSTER LOOP,Demand
     Plant Loop Connector Nodes,   2,Splitter,FULLSERVICERESTAURANT KITCHEN - 90.1-2013 SERVICE WATER BOOSTER LOOP DEMAND SPLITTER,PIPE ADIABATIC 8 OUTLET WATER NODE,BOOSTER FULLSERVICERESTAURANT KITCHEN - 90.1-2013 WUC 90.91GPM AT 180F INLET WATER NODE,FULLSERVICERESTAURANT KITCHEN - 90.1-2013 SERVICE WATER BOOSTER LOOP,Demand
     Plant Loop Connector Branches,3,Splitter,FULLSERVICERESTAURANT KITCHEN - 90.1-2013 SERVICE WATER BOOSTER LOOP DEMAND SPLITTER,FULLSERVICERESTAURANT KITCHEN - 90.1-2013 SERVICE WATER BOOSTER LOOP DEMAND INLET BRANCH,FULLSERVICERESTAURANT KITCHEN - 90.1-2013 SERVICE WATER BOOSTER LOOP DEMAND BYPASS BRANCH,FULLSERVICERESTAURANT KITCHEN - 90.1-2013 SERVICE WATER BOOSTER LOOP,Demand
     Plant Loop Connector Nodes,   3,Splitter,FULLSERVICERESTAURANT KITCHEN - 90.1-2013 SERVICE WATER BOOSTER LOOP DEMAND SPLITTER,PIPE ADIABATIC 8 OUTLET WATER NODE,FULLSERVICERESTAURANT KITCHEN - 90.1-2013 SERVICE WATER BOOSTER LOOP DEMAND BYPASS PIPE INLET NODE,FULLSERVICERESTAURANT KITCHEN - 90.1-2013 SERVICE WATER BOOSTER LOOP,Demand
   Plant Loop Connector,Mixer,FULLSERVICERESTAURANT KITCHEN - 90.1-2013 SERVICE WATER BOOSTER LOOP DEMAND MIXER,FULLSERVICERESTAURANT KITCHEN - 90.1-2013 SERVICE WATER BOOSTER LOOP,Demand,3
     Plant Loop Connector Branches,1,Mixer,FULLSERVICERESTAURANT KITCHEN - 90.1-2013 SERVICE WATER BOOSTER LOOP DEMAND MIXER,FULLSERVICERESTAURANT KITCHEN - 90.1-2013 SERVICE WATER BOOSTER LOOP DEMAND BRANCH 1,FULLSERVICERESTAURANT KITCHEN - 90.1-2013 SERVICE WATER BOOSTER LOOP DEMAND OUTLET BRANCH,FULLSERVICERESTAURANT KITCHEN - 90.1-2013 SERVICE WATER BOOSTER LOOP,Demand
     Plant Loop Connector Nodes,   1,Mixer,FULLSERVICERESTAURANT KITCHEN - 90.1-2013 SERVICE WATER BOOSTER LOOP DEMAND MIXER,PIPE ADIABATIC 6 OUTLET WATER NODE,PIPE ADIABATIC 9 INLET WATER NODE,FULLSERVICERESTAURANT KITCHEN - 90.1-2013 SERVICE WATER BOOSTER LOOP,Demand
     Plant Loop Connector Branches,2,Mixer,FULLSERVICERESTAURANT KITCHEN - 90.1-2013 SERVICE WATER BOOSTER LOOP DEMAND MIXER,FULLSERVICERESTAURANT KITCHEN - 90.1-2013 SERVICE WATER BOOSTER LOOP DEMAND BRANCH 2,FULLSERVICERESTAURANT KITCHEN - 90.1-2013 SERVICE WATER BOOSTER LOOP DEMAND OUTLET BRANCH,FULLSERVICERESTAURANT KITCHEN - 90.1-2013 SERVICE WATER BOOSTER LOOP,Demand
     Plant Loop Connector Nodes,   2,Mixer,FULLSERVICERESTAURANT KITCHEN - 90.1-2013 SERVICE WATER BOOSTER LOOP DEMAND MIXER,BOOSTER FULLSERVICERESTAURANT KITCHEN - 90.1-2013 WUC 90.91GPM AT 180F OUTLET WATER NODE,PIPE ADIABATIC 9 INLET WATER NODE,FULLSERVICERESTAURANT KITCHEN - 90.1-2013 SERVICE WATER BOOSTER LOOP,Demand
     Plant Loop Connector Branches,3,Mixer,FULLSERVICERESTAURANT KITCHEN - 90.1-2013 SERVICE WATER BOOSTER LOOP DEMAND MIXER,FULLSERVICERESTAURANT KITCHEN - 90.1-2013 SERVICE WATER BOOSTER LOOP DEMAND BYPASS BRANCH,FULLSERVICERESTAURANT KITCHEN - 90.1-2013 SERVICE WATER BOOSTER LOOP DEMAND OUTLET BRANCH,FULLSERVICERESTAURANT KITCHEN - 90.1-2013 SERVICE WATER BOOSTER LOOP,Demand
     Plant Loop Connector Nodes,   3,Mixer,FULLSERVICERESTAURANT KITCHEN - 90.1-2013 SERVICE WATER BOOSTER LOOP DEMAND MIXER,FULLSERVICERESTAURANT KITCHEN - 90.1-2013 SERVICE WATER BOOSTER LOOP DEMAND BYPASS PIPE OUTLET NODE,PIPE ADIABATIC 9 INLET WATER NODE,FULLSERVICERESTAURANT KITCHEN - 90.1-2013 SERVICE WATER BOOSTER LOOP,Demand
[...]
 Non-Parent Node Connection,1 ZONE VAV 2 DEMAND INLET NODE,AIRLOOPHVAC:ZONESPLITTER,AIR LOOP HVAC ZONE SPLITTER 3,Inlet,1
 Non-Parent Node Connection,BUILDING STORY 3 THERMALZONE VAV TERMINAL INLET AIR NODE,AIRLOOPHVAC:ZONESPLITTER,AIR LOOP HVAC ZONE SPLITTER 3,Outlet,1
 Non-Parent Node Connection,1 ZONE VAV 3 DEMAND INLET NODE,AIRLOOPHVAC:ZONESPLITTER,AIR LOOP HVAC ZONE SPLITTER 4,Inlet,1
 Non-Parent Node Connection,BUILDING STORY 4 THERMALZONE VAV TERMINAL INLET AIR NODE,AIRLOOPHVAC:ZONESPLITTER,AIR LOOP HVAC ZONE SPLITTER 4,Outlet,1
 Non-Parent Node Connection,BUILDING STORY 1 THERMALZONE VAV TERMINAL DAMPER OUTLET,AIRTERMINAL:SINGLEDUCT:VAV:REHEAT,BUILDING STORY 1 THERMALZONE VAV TERMINAL,Outlet,1
 Non-Parent Node Connection,BUILDING STORY 1 THERMALZONE VAV TERMINAL INLET AIR NODE,AIRTERMINAL:SINGLEDUCT:VAV:REHEAT,BUILDING STORY 1 THERMALZONE VAV TERMINAL,Inlet,1
 Non-Parent Node Connection,BUILDING STORY 1 THERMALZONE REHEAT COIL INLET WATER NODE,COIL:HEATING:WATER,BUILDING STORY 1 THERMALZONE REHEAT COIL,Inlet,2
 Non-Parent Node Connection,BUILDING STORY 1 THERMALZONE REHEAT COIL OUTLET WATER NODE,COIL:HEATING:WATER,BUILDING STORY 1 THERMALZONE REHEAT COIL,Outlet,2
 Non-Parent Node Connection,BUILDING STORY 1 THERMALZONE VAV TERMINAL DAMPER OUTLET,COIL:HEATING:WATER,BUILDING STORY 1 THERMALZONE REHEAT COIL,Inlet,1
 Non-Parent Node Connection,BUILDING STORY 1 THERMALZONE VAV TERMINAL OUTLET AIR NODE,COIL:HEATING:WATER,BUILDING STORY 1 THERMALZONE REHEAT COIL,Outlet,1
 Non-Parent Node Connection,BUILDING STORY 2 THERMALZONE REHEAT COIL INLET WATER NODE,COIL:HEATING:WATER,BUILDING STORY 2 THERMALZONE REHEAT COIL,Inlet,2
 Non-Parent Node Connection,BUILDING STORY 2 THERMALZONE REHEAT COIL OUTLET WATER NODE,COIL:HEATING:WATER,BUILDING STORY 2 THERMALZONE REHEAT COIL,Outlet,2
 Non-Parent Node Connection,BUILDING STORY 2 THERMALZONE VAV TERMINAL DAMPER OUTLET,COIL:HEATING:WATER,BUILDING STORY 2 THERMALZONE REHEAT COIL,Inlet,1
 Non-Parent Node Connection,BUILDING STORY 2 THERMALZONE VAV TERMINAL OUTLET AIR NODE,COIL:HEATING:WATER,BUILDING STORY 2 THERMALZONE REHEAT COIL,Outlet,1
 Non-Parent Node Connection,BUILDING STORY 3 THERMALZONE REHEAT COIL INLET WATER NODE,COIL:HEATING:WATER,BUILDING STORY 3 THERMALZONE REHEAT COIL,Inlet,2
 Non-Parent Node Connection,BUILDING STORY 3 THERMALZONE REHEAT COIL OUTLET WATER NODE,COIL:HEATING:WATER,BUILDING STORY 3 THERMALZONE REHEAT COIL,Outlet,2
 Non-Parent Node Connection,BUILDING STORY 3 THERMALZONE VAV TERMINAL DAMPER OUTLET,COIL:HEATING:WATER,BUILDING STORY 3 THERMALZONE REHEAT COIL,Inlet,1
 Non-Parent Node Connection,BUILDING STORY 3 THERMALZONE VAV TERMINAL OUTLET AIR NODE,COIL:HEATING:WATER,BUILDING STORY 3 THERMALZONE REHEAT COIL,Outlet,1
 Non-Parent Node Connection,BUILDING STORY 4 THERMALZONE REHEAT COIL INLET WATER NODE,COIL:HEATING:WATER,BUILDING STORY 4 THERMALZONE REHEAT COIL,Inlet,2
 Non-Parent Node Connection,BUILDING STORY 4 THERMALZONE REHEAT COIL OUTLET WATER NODE,COIL:HEATING:WATER,BUILDING STORY 4 THERMALZONE REHEAT COIL,Outlet,2
 Non-Parent Node Connection,BUILDING STORY 4 THERMALZONE VAV TERMINAL DAMPER OUTLET,COIL:HEATING:WATER,BUILDING STORY 4 THERMALZONE REHEAT COIL,Inlet,1
 Non-Parent Node Connection,BUILDING STORY 4 THERMALZONE VAV TERMINAL OUTLET AIR NODE,COIL:HEATING:WATER,BUILDING STORY 4 THERMALZONE REHEAT COIL,Outlet,1
 Non-Parent Node Connection,1 ZONE VAV MAIN HTG COIL INLET WATER NODE,COIL:HEATING:WATER,1 ZONE VAV MAIN HTG COIL,Inlet,2
 Non-Parent Node Connection,1 ZONE VAV MAIN HTG COIL OUTLET WATER NODE,COIL:HEATING:WATER,1 ZONE VAV MAIN HTG COIL,Outlet,2
 Non-Parent Node Connection,1 ZONE VAV CLG COIL OUTLET AIR NODE,COIL:HEATING:WATER,1 ZONE VAV MAIN HTG COIL,Inlet,1
 Non-Parent Node Connection,1 ZONE VAV MAIN HTG COIL OUTLET AIR NODE,COIL:HEATING:WATER,1 ZONE VAV MAIN HTG COIL,Outlet,1
 Non-Parent Node Connection,1 ZONE VAV 1 MAIN HTG COIL INLET WATER NODE,COIL:HEATING:WATER,1 ZONE VAV 1 MAIN HTG COIL,Inlet,2
 Non-Parent Node Connection,1 ZONE VAV 1 MAIN HTG COIL OUTLET WATER NODE,COIL:HEATING:WATER,1 ZONE VAV 1 MAIN HTG COIL,Outlet,2
 Non-Parent Node Connection,1 ZONE VAV 1 CLG COIL OUTLET AIR NODE,COIL:HEATING:WATER,1 ZONE VAV 1 MAIN HTG COIL,Inlet,1
 Non-Parent Node Connection,1 ZONE VAV 1 MAIN HTG COIL OUTLET AIR NODE,COIL:HEATING:WATER,1 ZONE VAV 1 MAIN HTG COIL,Outlet,1
 Non-Parent Node Connection,1 ZONE VAV 2 MAIN HTG COIL INLET WATER NODE,COIL:HEATING:WATER,1 ZONE VAV 2 MAIN HTG COIL,Inlet,2
 Non-Parent Node Connection,1 ZONE VAV 2 MAIN HTG COIL OUTLET WATER NODE,COIL:HEATING:WATER,1 ZONE VAV 2 MAIN HTG COIL,Outlet,2
 Non-Parent Node Connection,1 ZONE VAV 2 CLG COIL OUTLET AIR NODE,COIL:HEATING:WATER,1 ZONE VAV 2 MAIN HTG COIL,Inlet,1
 Non-Parent Node Connection,1 ZONE VAV 2 MAIN HTG COIL OUTLET AIR NODE,COIL:HEATING:WATER,1 ZONE VAV 2 MAIN HTG COIL,Outlet,1
 Non-Parent Node Connection,1 ZONE VAV 3 MAIN HTG COIL INLET WATER NODE,COIL:HEATING:WATER,1 ZONE VAV 3 MAIN HTG COIL,Inlet,2
 Non-Parent Node Connection,1 ZONE VAV 3 MAIN HTG COIL OUTLET WATER NODE,COIL:HEATING:WATER,1 ZONE VAV 3 MAIN HTG COIL,Outlet,2
 Non-Parent Node Connection,1 ZONE VAV 3 CLG COIL OUTLET AIR NODE,COIL:HEATING:WATER,1 ZONE VAV 3 MAIN HTG COIL,Inlet,1
 Non-Parent Node Connection,1 ZONE VAV 3 MAIN HTG COIL OUTLET AIR NODE,COIL:HEATING:WATER,1 ZONE VAV 3 MAIN HTG COIL,Outlet,1
 Non-Parent Node Connection,1 ZONE VAV CLG COIL INLET WATER NODE,COIL:COOLING:WATER,1 ZONE VAV CLG COIL,Inlet,2
 Non-Parent Node Connection,1 ZONE VAV CLG COIL OUTLET WATER NODE,COIL:COOLING:WATER,1 ZONE VAV CLG COIL,Outlet,2
 Non-Parent Node Connection,1 ZONE VAV MIXED AIR NODE,COIL:COOLING:WATER,1 ZONE VAV CLG COIL,Inlet,1
 Non-Parent Node Connection,1 ZONE VAV CLG COIL OUTLET AIR NODE,COIL:COOLING:WATER,1 ZONE VAV CLG COIL,Outlet,1
 Non-Parent Node Connection,1 ZONE VAV 1 CLG COIL INLET WATER NODE,COIL:COOLING:WATER,1 ZONE VAV 1 CLG COIL,Inlet,2
 Non-Parent Node Connection,1 ZONE VAV 1 CLG COIL OUTLET WATER NODE,COIL:COOLING:WATER,1 ZONE VAV 1 CLG COIL,Outlet,2
 Non-Parent Node Connection,1 ZONE VAV 1 MIXED AIR NODE,COIL:COOLING:WATER,1 ZONE VAV 1 CLG COIL,Inlet,1
 Non-Parent Node Connection,1 ZONE VAV 1 CLG COIL OUTLET AIR NODE,COIL:COOLING:WATER,1 ZONE VAV 1 CLG COIL,Outlet,1
 Non-Parent Node Connection,1 ZONE VAV 2 CLG COIL INLET WATER NODE,COIL:COOLING:WATER,1 ZONE VAV 2 CLG COIL,Inlet,2
 Non-Parent Node Connection,1 ZONE VAV 2 CLG COIL OUTLET WATER NODE,COIL:COOLING:WATER,1 ZONE VAV 2 CLG COIL,Outlet,2
 Non-Parent Node Connection,1 ZONE VAV 2 MIXED AIR NODE,COIL:COOLING:WATER,1 ZONE VAV 2 CLG COIL,Inlet,1
 Non-Parent Node Connection,1 ZONE VAV 2 CLG COIL OUTLET AIR NODE,COIL:COOLING:WATER,1 ZONE VAV 2 CLG COIL,Outlet,1
 Non-Parent Node Connection,1 ZONE VAV 3 CLG COIL INLET WATER NODE,COIL:COOLING:WATER,1 ZONE VAV 3 CLG COIL,Inlet,2
 Non-Parent Node Connection,1 ZONE VAV 3 CLG COIL OUTLET WATER NODE,COIL:COOLING:WATER,1 ZONE VAV 3 CLG COIL,Outlet,2
 Non-Parent Node Connection,1 ZONE VAV 3 MIXED AIR NODE,COIL:COOLING:WATER,1 ZONE VAV 3 CLG COIL,Inlet,1
 Non-Parent Node Connection,1 ZONE VAV 3 CLG COIL OUTLET AIR NODE,COIL:COOLING:WATER,1 ZONE VAV 3 CLG COIL,Outlet,1
 Non-Parent Node Connection,BUILDING STORY 2 THERMALZONE VAV TERMINAL DAMPER OUTLET,AIRTERMINAL:SINGLEDUCT:VAV:REHEAT,BUILDING STORY 2 THERMALZONE VAV TERMINAL,Outlet,1
 Non-Parent Node Connection,BUILDING STORY 2 THERMALZONE VAV TERMINAL INLET AIR NODE,AIRTERMINAL:SINGLEDUCT:VAV:REHEAT,BUILDING STORY 2 THERMALZONE VAV TERMINAL,Inlet,1
 Non-Parent Node Connection,BUILDING STORY 3 THERMALZONE VAV TERMINAL DAMPER OUTLET,AIRTERMINAL:SINGLEDUCT:VAV:REHEAT,BUILDING STORY 3 THERMALZONE VAV TERMINAL,Outlet,1
 Non-Parent Node Connection,BUILDING STORY 3 THERMALZONE VAV TERMINAL INLET AIR NODE,AIRTERMINAL:SINGLEDUCT:VAV:REHEAT,BUILDING STORY 3 THERMALZONE VAV TERMINAL,Inlet,1
 Non-Parent Node Connection,BUILDING STORY 4 THERMALZONE VAV TERMINAL DAMPER OUTLET,AIRTERMINAL:SINGLEDUCT:VAV:REHEAT,BUILDING STORY 4 THERMALZONE VAV TERMINAL,Outlet,1
 Non-Parent Node Connection,BUILDING STORY 4 THERMALZONE VAV TERMINAL INLET AIR NODE,AIRTERMINAL:SINGLEDUCT:VAV:REHEAT,BUILDING STORY 4 THERMALZONE VAV TERMINAL,Inlet,1
 Non-Parent Node Connection,1 ZONE VAV CLG COIL OUTLET AIR NODE,CONTROLLER:WATERCOIL,1 ZONE VAV CLG COIL CONTROLLER,Sensor,1
 Non-Parent Node Connection,1 ZONE VAV CLG COIL INLET WATER NODE,CONTROLLER:WATERCOIL,1 ZONE VAV CLG COIL CONTROLLER,Actuator,1
 Non-Parent Node Connection,1 ZONE VAV MAIN HTG COIL OUTLET AIR NODE,CONTROLLER:WATERCOIL,1 ZONE VAV MAIN HTG COIL CONTROLLER,Sensor,1
 Non-Parent Node Connection,1 ZONE VAV MAIN HTG COIL INLET WATER NODE,CONTROLLER:WATERCOIL,1 ZONE VAV MAIN HTG COIL CONTROLLER,Actuator,1
 Non-Parent Node Connection,1 ZONE VAV 1 CLG COIL OUTLET AIR NODE,CONTROLLER:WATERCOIL,1 ZONE VAV 1 CLG COIL CONTROLLER,Sensor,1
 Non-Parent Node Connection,1 ZONE VAV 1 CLG COIL INLET WATER NODE,CONTROLLER:WATERCOIL,1 ZONE VAV 1 CLG COIL CONTROLLER,Actuator,1
 Non-Parent Node Connection,1 ZONE VAV 1 MAIN HTG COIL OUTLET AIR NODE,CONTROLLER:WATERCOIL,1 ZONE VAV 1 MAIN HTG COIL CONTROLLER,Sensor,1
 Non-Parent Node Connection,1 ZONE VAV 1 MAIN HTG COIL INLET WATER NODE,CONTROLLER:WATERCOIL,1 ZONE VAV 1 MAIN HTG COIL CONTROLLER,Actuator,1
 Non-Parent Node Connection,1 ZONE VAV 2 CLG COIL OUTLET AIR NODE,CONTROLLER:WATERCOIL,1 ZONE VAV 2 CLG COIL CONTROLLER,Sensor,1
 Non-Parent Node Connection,1 ZONE VAV 2 CLG COIL INLET WATER NODE,CONTROLLER:WATERCOIL,1 ZONE VAV 2 CLG COIL CONTROLLER,Actuator,1
 Non-Parent Node Connection,1 ZONE VAV 2 MAIN HTG COIL OUTLET AIR NODE,CONTROLLER:WATERCOIL,1 ZONE VAV 2 MAIN HTG COIL CONTROLLER,Sensor,1
 Non-Parent Node Connection,1 ZONE VAV 2 MAIN HTG COIL INLET WATER NODE,CONTROLLER:WATERCOIL,1 ZONE VAV 2 MAIN HTG COIL CONTROLLER,Actuator,1
 Non-Parent Node Connection,1 ZONE VAV 3 CLG COIL OUTLET AIR NODE,CONTROLLER:WATERCOIL,1 ZONE VAV 3 CLG COIL CONTROLLER,Sensor,1
 Non-Parent Node Connection,1 ZONE VAV 3 CLG COIL INLET WATER NODE,CONTROLLER:WATERCOIL,1 ZONE VAV 3 CLG COIL CONTROLLER,Actuator,1
 Non-Parent Node Connection,1 ZONE VAV 3 MAIN HTG COIL OUTLET AIR NODE,CONTROLLER:WATERCOIL,1 ZONE VAV 3 MAIN HTG COIL CONTROLLER,Sensor,1
 Non-Parent Node Connection,1 ZONE VAV 3 MAIN HTG COIL INLET WATER NODE,CONTROLLER:WATERCOIL,1 ZONE VAV 3 MAIN HTG COIL CONTROLLER,Actuator,1
 Non-Parent Node Connection,1 ZONE VAV DEMAND OUTLET NODE,AIRLOOPHVAC:ZONEMIXER,AIR LOOP HVAC ZONE MIXER 1,Outlet,1
 Non-Parent Node Connection,BUILDING STORY 1 THERMALZONE RETURN AIR NODE,AIRLOOPHVAC:ZONEMIXER,AIR LOOP HVAC ZONE MIXER 1,Inlet,1
 Non-Parent Node Connection,1 ZONE VAV 1 DEMAND OUTLET NODE,AIRLOOPHVAC:ZONEMIXER,AIR LOOP HVAC ZONE MIXER 2,Outlet,1
 Non-Parent Node Connection,BUILDING STORY 2 THERMALZONE RETURN AIR NODE,AIRLOOPHVAC:ZONEMIXER,AIR LOOP HVAC ZONE MIXER 2,Inlet,1
 Non-Parent Node Connection,1 ZONE VAV 2 DEMAND OUTLET NODE,AIRLOOPHVAC:ZONEMIXER,AIR LOOP HVAC ZONE MIXER 3,Outlet,1
 Non-Parent Node Connection,BUILDING STORY 3 THERMALZONE RETURN AIR NODE,AIRLOOPHVAC:ZONEMIXER,AIR LOOP HVAC ZONE MIXER 3,Inlet,1
 Non-Parent Node Connection,1 ZONE VAV 3 DEMAND OUTLET NODE,AIRLOOPHVAC:ZONEMIXER,AIR LOOP HVAC ZONE MIXER 4,Outlet,1
 Non-Parent Node Connection,BUILDING STORY 4 THERMALZONE RETURN AIR NODE,AIRLOOPHVAC:ZONEMIXER,AIR LOOP HVAC ZONE MIXER 4,Inlet,1
 Non-Parent Node Connection,1 ZONE VAV MIXED AIR NODE,OUTDOORAIR:MIXER,1 ZONE VAV OA SYSTEM OUTDOOR AIR MIXER,Outlet,1
 Non-Parent Node Connection,1 ZONE VAV OUTDOOR AIR NODE,OUTDOORAIR:MIXER,1 ZONE VAV OA SYSTEM OUTDOOR AIR MIXER,Inlet,1
 Non-Parent Node Connection,1 ZONE VAV RELIEF AIR NODE,OUTDOORAIR:MIXER,1 ZONE VAV OA SYSTEM OUTDOOR AIR MIXER,ReliefAir,1
 Non-Parent Node Connection,1 ZONE VAV SUPPLY INLET NODE,OUTDOORAIR:MIXER,1 ZONE VAV OA SYSTEM OUTDOOR AIR MIXER,Inlet,1
 Non-Parent Node Connection,1 ZONE VAV 1 MIXED AIR NODE,OUTDOORAIR:MIXER,1 ZONE VAV 1 OA SYSTEM OUTDOOR AIR MIXER,Outlet,1
 Non-Parent Node Connection,1 ZONE VAV 1 OUTDOOR AIR NODE,OUTDOORAIR:MIXER,1 ZONE VAV 1 OA SYSTEM OUTDOOR AIR MIXER,Inlet,1
 Non-Parent Node Connection,1 ZONE VAV 1 RELIEF AIR NODE,OUTDOORAIR:MIXER,1 ZONE VAV 1 OA SYSTEM OUTDOOR AIR MIXER,ReliefAir,1
 Non-Parent Node Connection,1 ZONE VAV 1 SUPPLY INLET NODE,OUTDOORAIR:MIXER,1 ZONE VAV 1 OA SYSTEM OUTDOOR AIR MIXER,Inlet,1
 Non-Parent Node Connection,1 ZONE VAV 2 MIXED AIR NODE,OUTDOORAIR:MIXER,1 ZONE VAV 2 OA SYSTEM OUTDOOR AIR MIXER,Outlet,1
 Non-Parent Node Connection,1 ZONE VAV 2 OUTDOOR AIR NODE,OUTDOORAIR:MIXER,1 ZONE VAV 2 OA SYSTEM OUTDOOR AIR MIXER,Inlet,1
 Non-Parent Node Connection,1 ZONE VAV 2 RELIEF AIR NODE,OUTDOORAIR:MIXER,1 ZONE VAV 2 OA SYSTEM OUTDOOR AIR MIXER,ReliefAir,1
 Non-Parent Node Connection,1 ZONE VAV 2 SUPPLY INLET NODE,OUTDOORAIR:MIXER,1 ZONE VAV 2 OA SYSTEM OUTDOOR AIR MIXER,Inlet,1
 Non-Parent Node Connection,1 ZONE VAV 3 MIXED AIR NODE,OUTDOORAIR:MIXER,1 ZONE VAV 3 OA SYSTEM OUTDOOR AIR MIXER,Outlet,1
 Non-Parent Node Connection,1 ZONE VAV 3 OUTDOOR AIR NODE,OUTDOORAIR:MIXER,1 ZONE VAV 3 OA SYSTEM OUTDOOR AIR MIXER,Inlet,1
 Non-Parent Node Connection,1 ZONE VAV 3 RELIEF AIR NODE,OUTDOORAIR:MIXER,1 ZONE VAV 3 OA SYSTEM OUTDOOR AIR MIXER,ReliefAir,1
 Non-Parent Node Connection,1 ZONE VAV 3 SUPPLY INLET NODE,OUTDOORAIR:MIXER,1 ZONE VAV 3 OA SYSTEM OUTDOOR AIR MIXER,Inlet,1
 Non-Parent Node Connection,1 ZONE VAV MAIN HTG COIL OUTLET AIR NODE,FAN:VARIABLEVOLUME,1 ZONE VAV FAN,Inlet,1
 Non-Parent Node Connection,1 ZONE VAV SUPPLY OUTLET NODE,FAN:VARIABLEVOLUME,1 ZONE VAV FAN,Outlet,1
 Non-Parent Node Connection,1 ZONE VAV 1 MAIN HTG COIL OUTLET AIR NODE,FAN:VARIABLEVOLUME,1 ZONE VAV 1 FAN,Inlet,1
 Non-Parent Node Connection,1 ZONE VAV 1 SUPPLY OUTLET NODE,FAN:VARIABLEVOLUME,1 ZONE VAV 1 FAN,Outlet,1
 Non-Parent Node Connection,1 ZONE VAV 2 MAIN HTG COIL OUTLET AIR NODE,FAN:VARIABLEVOLUME,1 ZONE VAV 2 FAN,Inlet,1
 Non-Parent Node Connection,1 ZONE VAV 2 SUPPLY OUTLET NODE,FAN:VARIABLEVOLUME,1 ZONE VAV 2 FAN,Outlet,1
 Non-Parent Node Connection,1 ZONE VAV 3 MAIN HTG COIL OUTLET AIR NODE,FAN:VARIABLEVOLUME,1 ZONE VAV 3 FAN,Inlet,1
 Non-Parent Node Connection,1 ZONE VAV 3 SUPPLY OUTLET NODE,FAN:VARIABLEVOLUME,1 ZONE VAV 3 FAN,Outlet,1
 Non-Parent Node Connection,1 ZONE VAV MIXED AIR NODE,CONTROLLER:OUTDOORAIR,1 ZONE VAV OA CONTROLLER,Sensor,1
 Non-Parent Node Connection,1 ZONE VAV OUTDOOR AIR NODE,CONTROLLER:OUTDOORAIR,1 ZONE VAV OA CONTROLLER,Actuator,1
 Non-Parent Node Connection,1 ZONE VAV RELIEF AIR NODE,CONTROLLER:OUTDOORAIR,1 ZONE VAV OA CONTROLLER,Actuator,1
 Non-Parent Node Connection,1 ZONE VAV SUPPLY INLET NODE,CONTROLLER:OUTDOORAIR,1 ZONE VAV OA CONTROLLER,Sensor,1
 Non-Parent Node Connection,1 ZONE VAV 1 MIXED AIR NODE,CONTROLLER:OUTDOORAIR,1 ZONE VAV 1 OA CONTROLLER,Sensor,1
 Non-Parent Node Connection,1 ZONE VAV 1 OUTDOOR AIR NODE,CONTROLLER:OUTDOORAIR,1 ZONE VAV 1 OA CONTROLLER,Actuator,1
 Non-Parent Node Connection,1 ZONE VAV 1 RELIEF AIR NODE,CONTROLLER:OUTDOORAIR,1 ZONE VAV 1 OA CONTROLLER,Actuator,1
 Non-Parent Node Connection,1 ZONE VAV 1 SUPPLY INLET NODE,CONTROLLER:OUTDOORAIR,1 ZONE VAV 1 OA CONTROLLER,Sensor,1
 Non-Parent Node Connection,1 ZONE VAV 2 MIXED AIR NODE,CONTROLLER:OUTDOORAIR,1 ZONE VAV 2 OA CONTROLLER,Sensor,1
 Non-Parent Node Connection,1 ZONE VAV 2 OUTDOOR AIR NODE,CONTROLLER:OUTDOORAIR,1 ZONE VAV 2 OA CONTROLLER,Actuator,1
 Non-Parent Node Connection,1 ZONE VAV 2 RELIEF AIR NODE,CONTROLLER:OUTDOORAIR,1 ZONE VAV 2 OA CONTROLLER,Actuator,1
 Non-Parent Node Connection,1 ZONE VAV 2 SUPPLY INLET NODE,CONTROLLER:OUTDOORAIR,1 ZONE VAV 2 OA CONTROLLER,Sensor,1
 Non-Parent Node Connection,1 ZONE VAV 3 MIXED AIR NODE,CONTROLLER:OUTDOORAIR,1 ZONE VAV 3 OA CONTROLLER,Sensor,1
 Non-Parent Node Connection,1 ZONE VAV 3 OUTDOOR AIR NODE,CONTROLLER:OUTDOORAIR,1 ZONE VAV 3 OA CONTROLLER,Actuator,1
 Non-Parent Node Connection,1 ZONE VAV 3 RELIEF AIR NODE,CONTROLLER:OUTDOORAIR,1 ZONE VAV 3 OA CONTROLLER,Actuator,1
 Non-Parent Node Connection,1 ZONE VAV 3 SUPPLY INLET NODE,CONTROLLER:OUTDOORAIR,1 ZONE VAV 3 OA CONTROLLER,Sensor,1
 Non-Parent Node Connection,90.1-2013 WATERCOOLED  ROTARY SCREW CHILLER 0 SUPPLY INLET WATER NODE,CHILLER:ELECTRIC:EIR,90.1-2013 WATERCOOLED  ROTARY SCREW CHILLER 0 2766TONS 0.6KW/TON,Inlet,1
 Non-Parent Node Connection,90.1-2013 WATERCOOLED  ROTARY SCREW CHILLER 0 SUPPLY OUTLET WATER NODE,CHILLER:ELECTRIC:EIR,90.1-2013 WATERCOOLED  ROTARY SCREW CHILLER 0 2766TONS 0.6KW/TON,Outlet,1
 Non-Parent Node Connection,90.1-2013 WATERCOOLED  ROTARY SCREW CHILLER 0 DEMAND INLET WATER NODE,CHILLER:ELECTRIC:EIR,90.1-2013 WATERCOOLED  ROTARY SCREW CHILLER 0 2766TONS 0.6KW/TON,Inlet,2
 Non-Parent Node Connection,90.1-2013 WATERCOOLED  ROTARY SCREW CHILLER 0 DEMAND OUTLET WATER NODE,CHILLER:ELECTRIC:EIR,90.1-2013 WATERCOOLED  ROTARY SCREW CHILLER 0 2766TONS 0.6KW/TON,Outlet,2
 Non-Parent Node Connection,HX FOR BOOSTER WATER HEATING DEMAND INLET WATER NODE,HEATEXCHANGER:FLUIDTOFLUID,HX FOR BOOSTER WATER HEATING,Inlet,1
 Non-Parent Node Connection,MAINS WATER MAKEUP FOR SWH BOOSTER INLET WATER NODE,HEATEXCHANGER:FLUIDTOFLUID,HX FOR BOOSTER WATER HEATING,Outlet,1
 Non-Parent Node Connection,FULLSERVICERESTAURANT KITCHEN - 90.1-2013 SERVICE WATER BOOSTER LOOP SUPPLY INLET NODE,HEATEXCHANGER:FLUIDTOFLUID,HX FOR BOOSTER WATER HEATING,Inlet,2
 Non-Parent Node Connection,BOOSTER WATER LOOP PUMP INLET WATER NODE,HEATEXCHANGER:FLUIDTOFLUID,HX FOR BOOSTER WATER HEATING,Outlet,2
 Non-Parent Node Connection,FULLSERVICERESTAURANT KITCHEN - 90.1-2013 SERVICE WATER BOOSTER LOOP SUPPLY OUTLET NODE,HEATEXCHANGER:FLUIDTOFLUID,HX FOR BOOSTER WATER HEATING,Sensor,1
 Non-Parent Node Connection,MAINS WATER MAKEUP FOR SWH BOOSTER INLET WATER NODE,PLANTCOMPONENT:TEMPERATURESOURCE,MAINS WATER MAKEUP FOR SWH BOOSTER,Inlet,1
 Non-Parent Node Connection,MAINS WATER MAKEUP FOR SWH BOOSTER OUTLET WATER NODE,PLANTCOMPONENT:TEMPERATURESOURCE,MAINS WATER MAKEUP FOR SWH BOOSTER,Outlet,1
 Non-Parent Node Connection,CHILLED WATER LOOP SECONDARY PUMP INLET WATER NODE,PUMP:VARIABLESPEED,CHILLED WATER LOOP SECONDARY PUMP,Inlet,1
 Non-Parent Node Connection,CHILLED WATER LOOP SECONDARY PUMP OUTLET WATER NODE,PUMP:VARIABLESPEED,CHILLED WATER LOOP SECONDARY PUMP,Outlet,1
 Non-Parent Node Connection,BOOSTER WATER LOOP PUMP INLET WATER NODE,PUMP:VARIABLESPEED,BOOSTER WATER LOOP PUMP,Inlet,1
 Non-Parent Node Connection,BOOSTER WATER LOOP PUMP OUTLET WATER NODE,PUMP:VARIABLESPEED,BOOSTER WATER LOOP PUMP,Outlet,1
 Non-Parent Node Connection,FULLSERVICERESTAURANT KITCHEN - 90.1-2013 SERVICE WATER LOOP SUPPLY INLET NODE,PUMP:VARIABLESPEED,FULLSERVICERESTAURANT KITCHEN - 90.1-2013 SERVICE WATER LOOP WATER MAINS PRESSURE DRIVEN,Inlet,1
 Non-Parent Node Connection,FULLSERVICERESTAURANT KITCHEN - 90.1-2013 SERVICE WATER LOOP WATER MAINS PRESSURE DRIVEN OUTLET WATER NODE,PUMP:VARIABLESPEED,FULLSERVICERESTAURANT KITCHEN - 90.1-2013 SERVICE WATER LOOP WATER MAINS PRESSURE DRIVEN,Outlet,1
 Non-Parent Node Connection,HOT WATER LOOP SUPPLY INLET NODE,PUMP:VARIABLESPEED,HOT WATER LOOP PUMP,Inlet,1
 Non-Parent Node Connection,HOT WATER LOOP PUMP OUTLET WATER NODE,PUMP:VARIABLESPEED,HOT WATER LOOP PUMP,Outlet,1
 Non-Parent Node Connection,CHILLED WATER LOOP SUPPLY INLET NODE,PUMP:CONSTANTSPEED,CHILLED WATER LOOP PRIMARY PUMP,Inlet,1
 Non-Parent Node Connection,CHILLED WATER LOOP PRIMARY PUMP OUTLET WATER NODE,PUMP:CONSTANTSPEED,CHILLED WATER LOOP PRIMARY PUMP,Outlet,1
 Non-Parent Node Connection,CONDENSER WATER LOOP SUPPLY INLET NODE,PUMP:CONSTANTSPEED,CONDENSER WATER LOOP CONSTANT PUMP,Inlet,1
 Non-Parent Node Connection,CONDENSER WATER LOOP CONSTANT PUMP OUTLET WATER NODE,PUMP:CONSTANTSPEED,CONDENSER WATER LOOP CONSTANT PUMP,Outlet,1
 Non-Parent Node Connection,OFFICE SHARED SERVICE WATER LOOP SUPPLY INLET NODE,PUMP:CONSTANTSPEED,OFFICE SHARED SERVICE WATER LOOP CIRCULATOR PUMP,Inlet,1
 Non-Parent Node Connection,OFFICE SHARED SERVICE WATER LOOP CIRCULATOR PUMP OUTLET WATER NODE,PUMP:CONSTANTSPEED,OFFICE SHARED SERVICE WATER LOOP CIRCULATOR PUMP,Outlet,1
