{
   "completed_at" : "20200413T212237Z",
   "completed_status" : "Success",
   "current_step" : 12,
   "description" : "Mixed_use 1",
   "eplusout_err" : "Program Version,EnergyPlus, Version 9.2.0-921312fa1d, YMD=2020.04.13 15:04,\n   ************* Beginning Zone Sizing Calculations\n   ** Warning ** ProcessScheduleInput: Schedule:Day:Interval=\"42 SPACE(S) OCC SCH DEFAULT\", Blank Schedule Type Limits Name input -- will not be validated.\n   ** Warning ** ProcessScheduleInput: Schedule:Day:Interval=\"42 SPACE(S) OCC SCH SATURDAY\", Blank Schedule Type Limits Name input -- will not be validated.\n   ** Warning ** ProcessScheduleInput: Schedule:Day:Interval=\"42 SPACE(S) OCC SCH SUMMER DESIGN DAY\", Blank Schedule Type Limits Name input -- will not be validated.\n   ** Warning ** ProcessScheduleInput: Schedule:Day:Interval=\"42 SPACE(S) OCC SCH SUNDAY\", Blank Schedule Type Limits Name input -- will not be validated.\n   ** Warning ** ProcessScheduleInput: Schedule:Day:Interval=\"42 SPACE(S) OCC SCH WINTER DESIGN DAY\", Blank Schedule Type Limits Name input -- will not be validated.\n   ** Warning ** ProcessScheduleInput: Schedule:Day:Interval=\"ECONOMIZER MAX OA FRACTION 70 PCT DEFAULT\", Blank Schedule Type Limits Name input -- will not be validated.\n   ** Warning ** ProcessScheduleInput: Schedule:Day:Interval=\"SCHEDULE DAY 1\", Blank Schedule Type Limits Name input -- will not be validated.\n   ** Warning ** ProcessScheduleInput: Schedule:Day:Interval=\"SCHEDULE DAY 2\", Blank Schedule Type Limits Name input -- will not be validated.\n   ** Warning ** ProcessScheduleInput: Schedule:Day:Interval=\"SCHEDULE DAY 3\", Blank Schedule Type Limits Name input -- will not be validated.\n   ** Warning ** ProcessScheduleInput: Schedule:Day:Interval=\"SCHEDULE DAY 4\", Blank Schedule Type Limits Name input -- will not be validated.\n   ** Warning ** ProcessScheduleInput: Schedule:Day:Interval=\"SCHEDULE DAY 5\", Blank Schedule Type Limits Name input -- will not be validated.\n   ** Warning ** ProcessScheduleInput: Schedule:Day:Interval=\"SCHEDULE DAY 6\", Blank Schedule Type Limits Name input -- will not be validated.\n   ** Warning ** ProcessScheduleInput: Schedule:Day:Interval=\"SCHEDULE DAY 7\", Blank Schedule Type Limits Name input -- will not be validated.\n   ** Warning ** ProcessScheduleInput: Schedule:Day:Interval=\"SCHEDULE DAY 8\", Blank Schedule Type Limits Name input -- will not be validated.\n   ** Warning ** ProcessScheduleInput: Schedule:Year=\"ECONOMIZER MAX OA FRACTION 70 PCT\", Blank Schedule Type Limits Name input -- will not be validated.\n   ** Warning ** ProcessScheduleInput: Schedule:Year=\"ELEVATOR SCHEDULE\", Blank Schedule Type Limits Name input -- will not be validated.\n   ** Warning ** ProcessScheduleInput: Schedule:Constant=\"ALWAYS OFF DISCRETE\", Blank Schedule Type Limits Name input -- will not be validated.\n   ** Warning ** ProcessScheduleInput: Schedule:Constant=\"ALWAYS ON CONTINUOUS\", Blank Schedule Type Limits Name input -- will not be validated.\n   ** Warning ** CheckUsedConstructions: There are 11 nominally unused constructions in input.\n   **   ~~~   ** For explicit details on each unused construction, use Output:Diagnostics,DisplayExtraWarnings;\n   ** Warning ** DetermineShadowingCombinations: There are 2 surfaces which are receiving surfaces and are non-convex.\n   **   ~~~   ** ...Shadowing values may be inaccurate. Check .shd report file for more surface shading details\n   **   ~~~   ** ...Add Output:Diagnostics,DisplayExtraWarnings; to see individual warnings for each surface.\n   ** Warning ** GetDaylightingControls: Fraction of Zone controlled by the Daylighting reference points is < 1.0.\n   **   ~~~   ** ..discovered in \"Daylighting:Controls\" for Zone=\"BUILDING STORY 1 THERMALZONE\", only 0.20 of the zone is controlled.\n   ** Warning ** GetDaylightingControls: Fraction of Zone controlled by the Daylighting reference points is < 1.0.\n   **   ~~~   ** ..discovered in \"Daylighting:Controls\" for Zone=\"BUILDING STORY 2 THERMALZONE\", only 8.40E-002 of the zone is controlled.\n   ** Warning ** GetDaylightingControls: Fraction of Zone controlled by the Daylighting reference points is < 1.0.\n   **   ~~~   ** ..discovered in \"Daylighting:Controls\" for Zone=\"BUILDING STORY 3 THERMALZONE\", only 0.20 of the zone is controlled.\n   ** Warning ** GetDaylightingControls: Fraction of Zone controlled by the Daylighting reference points is < 1.0.\n   **   ~~~   ** ..discovered in \"Daylighting:Controls\" for Zone=\"BUILDING STORY 4 THERMALZONE\", only 8.40E-002 of the zone is controlled.\n   ************* Beginning System Sizing Calculations\n   ** Warning ** Since Zone Minimum Air Flow Input Method = CONSTANT, input for Fixed Minimum Air Flow Rate will be ignored.\n   **   ~~~   ** Occurs in AirTerminal:SingleDuct:VAV:Reheat = BUILDING STORY 1 THERMALZONE VAV TERMINAL\n   ** Warning ** Since Zone Minimum Air Flow Input Method = CONSTANT, input for Fixed Minimum Air Flow Rate will be ignored.\n   **   ~~~   ** Occurs in AirTerminal:SingleDuct:VAV:Reheat = BUILDING STORY 2 THERMALZONE VAV TERMINAL\n   ** Warning ** Since Zone Minimum Air Flow Input Method = CONSTANT, input for Fixed Minimum Air Flow Rate will be ignored.\n   **   ~~~   ** Occurs in AirTerminal:SingleDuct:VAV:Reheat = BUILDING STORY 3 THERMALZONE VAV TERMINAL\n   ** Warning ** Since Zone Minimum Air Flow Input Method = CONSTANT, input for Fixed Minimum Air Flow Rate will be ignored.\n   **   ~~~   ** Occurs in AirTerminal:SingleDuct:VAV:Reheat = BUILDING STORY 4 THERMALZONE VAV TERMINAL\n   ************* Beginning Plant Sizing Calculations\n   ** Warning ** Controller:MechanicalVentilation=\"1 ZONE VAV VENT CONTROLLER\", Zone OA/person rate\n   **   ~~~   ** For Zone=\"BUILDING STORY 1 THERMALZONE\".\n   **   ~~~   ** Zone outside air per person rate not set in Design Specification Outdoor Air Object=\"BLENDED OA 3\".\n   ** Warning ** Controller:MechanicalVentilation=\"1 ZONE VAV 2 VENT CONTROLLER\", Zone OA/person rate\n   **   ~~~   ** For Zone=\"BUILDING STORY 3 THERMALZONE\".\n   **   ~~~   ** Zone outside air per person rate not set in Design Specification Outdoor Air Object=\"BLENDED OA 2\".\n   ** Warning ** In calculating the design coil UA for Coil:Cooling:Water 1 ZONE VAV CLG COIL\n   **   ~~~   ** the coil bypass factor is unrealistically large;\n   **   ~~~   ** The initial design conditions are: Tair,in = 27.5876\n   **   ~~~   **                                    Wair,in = 1.238938E-002\n   **   ~~~   **                                    Twater,in = 6.6667\n   **   ~~~   **                                    Tair,out = 10.9202\n   **   ~~~   **                                    Wair,out = 8.500000E-003\n   ** Warning ** In calculating the design coil UA for Coil:Cooling:Water 1 ZONE VAV 1 CLG COIL\n   **   ~~~   ** the coil bypass factor is unrealistically large;\n   **   ~~~   ** The initial design conditions are: Tair,in = 23.9995\n   **   ~~~   **                                    Wair,in = 9.525315E-003\n   **   ~~~   **                                    Twater,in = 6.6667\n   **   ~~~   **                                    Tair,out = 10.9105\n   **   ~~~   **                                    Wair,out = 8.500000E-003\n   ** Warning ** In calculating the design coil UA for Coil:Cooling:Water 1 ZONE VAV 2 CLG COIL\n   **   ~~~   ** the coil bypass factor is unrealistically large;\n   **   ~~~   ** The initial design conditions are: Tair,in = 27.2582\n   **   ~~~   **                                    Wair,in = 1.176854E-002\n   **   ~~~   **                                    Twater,in = 6.6667\n   **   ~~~   **                                    Tair,out = 10.9181\n   **   ~~~   **                                    Wair,out = 8.500000E-003\n   ** Warning ** In calculating the design coil UA for Coil:Cooling:Water 1 ZONE VAV 3 CLG COIL\n   **   ~~~   ** the coil bypass factor is unrealistically large;\n   **   ~~~   ** The initial design conditions are: Tair,in = 24.0448\n   **   ~~~   **                                    Wair,in = 9.314104E-003\n   **   ~~~   **                                    Twater,in = 6.6667\n   **   ~~~   **                                    Tair,out = 10.9098\n   **   ~~~   **                                    Wair,out = 8.500000E-003\n   ** Warning ** GetElectricEIRChillerInput: Chiller:Electric:EIR=\"90.1-2013 WATERCOOLED  ROTARY SCREW CHILLER 0 2766TONS 0.6KW/TON\"\n   **   ~~~   ** Energy input ratio as a function of temperature curve output is not equal to 1.0 (+ or - 10%) at reference conditions.\n   **   ~~~   ** Curve output at reference conditions = 1.205\n   ** Warning ** Check input. Pump nominal power or motor efficiency is set to 0, for pump=BOOSTER WATER LOOP PUMP\n   ** Warning ** Missing temperature setpoint for LeavingSetpointModulated mode Boiler named BOILER 16089KBTU/HR 0.8 THERMAL EFF\n   **   ~~~   **   A temperature setpoint is needed at the outlet node of a boiler in variable flow mode\n   **   ~~~   **   use a Setpoint Manager to establish a setpoint at the boiler outlet node \n   **   ~~~   **   or use an EMS actuator to establish a setpoint at the boiler outlet node \n   **   ~~~   **   The overall loop setpoint will be assumed for Boiler. The simulation continues ... \n   ** Warning ** Output:Meter: invalid Key Name=\"HEATING:ADDITIONALFUEL\" - not found.\n   ** Warning ** Output:Meter: invalid Key Name=\"HEATING:DISTRICTCOOLING\" - not found.\n   ** Warning ** Output:Meter: invalid Key Name=\"HEATING:DISTRICTHEATING\" - not found.\n   ** Warning ** Output:Meter: invalid Key Name=\"HEATING:WATER\" - not found.\n   ** Warning ** Output:Meter: invalid Key Name=\"COOLING:GAS\" - not found.\n   ** Warning ** Output:Meter: invalid Key Name=\"COOLING:ADDITIONALFUEL\" - not found.\n   ** Warning ** Output:Meter: invalid Key Name=\"COOLING:DISTRICTCOOLING\" - not found.\n   ** Warning ** Output:Meter: invalid Key Name=\"COOLING:DISTRICTHEATING\" - not found.\n   ** Warning ** Output:Meter: invalid Key Name=\"COOLING:WATER\" - not found.\n   ** Warning ** Output:Meter: invalid Key Name=\"INTERIORLIGHTS:GAS\" - not found.\n   ** Warning ** Output:Meter: invalid Key Name=\"INTERIORLIGHTS:ADDITIONALFUEL\" - not found.\n   ** Warning ** Output:Meter: invalid Key Name=\"INTERIORLIGHTS:DISTRICTCOOLING\" - not found.\n   ** Warning ** Output:Meter: invalid Key Name=\"INTERIORLIGHTS:DISTRICTHEATING\" - not found.\n   ** Warning ** Output:Meter: invalid Key Name=\"INTERIORLIGHTS:WATER\" - not found.\n   ** Warning ** Output:Meter: invalid Key Name=\"EXTERIORLIGHTS:GAS\" - not found.\n   ** Warning ** Output:Meter: invalid Key Name=\"EXTERIORLIGHTS:ADDITIONALFUEL\" - not found.\n   ** Warning ** Output:Meter: invalid Key Name=\"EXTERIORLIGHTS:DISTRICTCOOLING\" - not found.\n   ** Warning ** Output:Meter: invalid Key Name=\"EXTERIORLIGHTS:DISTRICTHEATING\" - not found.\n   ** Warning ** Output:Meter: invalid Key Name=\"EXTERIORLIGHTS:WATER\" - not found.\n   ** Warning ** Output:Meter: invalid Key Name=\"INTERIOREQUIPMENT:ADDITIONALFUEL\" - not found.\n   ** Warning ** Output:Meter: invalid Key Name=\"INTERIOREQUIPMENT:DISTRICTCOOLING\" - not found.\n   ** Warning ** Output:Meter: invalid Key Name=\"INTERIOREQUIPMENT:DISTRICTHEATING\" - not found.\n   ** Warning ** Output:Meter: invalid Key Name=\"INTERIOREQUIPMENT:WATER\" - not found.\n   ** Warning ** Output:Meter: invalid Key Name=\"EXTERIOREQUIPMENT:ELECTRICITY\" - not found.\n   ** Warning ** Output:Meter: invalid Key Name=\"EXTERIOREQUIPMENT:GAS\" - not found.\n   ** Warning ** Output:Meter: invalid Key Name=\"EXTERIOREQUIPMENT:ADDITIONALFUEL\" - not found.\n   ** Warning ** Output:Meter: invalid Key Name=\"EXTERIOREQUIPMENT:DISTRICTCOOLING\" - not found.\n   ** Warning ** Output:Meter: invalid Key Name=\"EXTERIOREQUIPMENT:DISTRICTHEATING\" - not found.\n   ** Warning ** Output:Meter: invalid Key Name=\"EXTERIOREQUIPMENT:WATER\" - not found.\n   ** Warning ** Output:Meter: invalid Key Name=\"FANS:GAS\" - not found.\n   ** Warning ** Output:Meter: invalid Key Name=\"FANS:ADDITIONALFUEL\" - not found.\n   ** Warning ** Output:Meter: invalid Key Name=\"FANS:DISTRICTCOOLING\" - not found.\n   ** Warning ** Output:Meter: invalid Key Name=\"FANS:DISTRICTHEATING\" - not found.\n   ** Warning ** Output:Meter: invalid Key Name=\"FANS:WATER\" - not found.\n   ** Warning ** Output:Meter: invalid Key Name=\"PUMPS:GAS\" - not found.\n   ** Warning ** Output:Meter: invalid Key Name=\"PUMPS:ADDITIONALFUEL\" - not found.\n   ** Warning ** Output:Meter: invalid Key Name=\"PUMPS:DISTRICTCOOLING\" - not found.\n   ** Warning ** Output:Meter: invalid Key Name=\"PUMPS:DISTRICTHEATING\" - not found.\n   ** Warning ** Output:Meter: invalid Key Name=\"PUMPS:WATER\" - not found.\n   ** Warning ** Output:Meter: invalid Key Name=\"HEATREJECTION:GAS\" - not found.\n   ** Warning ** Output:Meter: invalid Key Name=\"HEATREJECTION:ADDITIONALFUEL\" - not found.\n   ** Warning ** Output:Meter: invalid Key Name=\"HEATREJECTION:DISTRICTCOOLING\" - not found.\n   ** Warning ** Output:Meter: invalid Key Name=\"HEATREJECTION:DISTRICTHEATING\" - not found.\n   ** Warning ** Output:Meter: invalid Key Name=\"HUMIDIFIER:ELECTRICITY\" - not found.\n   ** Warning ** Output:Meter: invalid Key Name=\"HUMIDIFIER:GAS\" - not found.\n   ** Warning ** Output:Meter: invalid Key Name=\"HUMIDIFIER:ADDITIONALFUEL\" - not found.\n   ** Warning ** Output:Meter: invalid Key Name=\"HUMIDIFIER:DISTRICTCOOLING\" - not found.\n   ** Warning ** Output:Meter: invalid Key Name=\"HUMIDIFIER:DISTRICTHEATING\" - not found.\n   ** Warning ** Output:Meter: invalid Key Name=\"HUMIDIFIER:WATER\" - not found.\n   ** Warning ** Output:Meter: invalid Key Name=\"HEATRECOVERY:ELECTRICITY\" - not found.\n   ** Warning ** Output:Meter: invalid Key Name=\"HEATRECOVERY:GAS\" - not found.\n   ** Warning ** Output:Meter: invalid Key Name=\"HEATRECOVERY:ADDITIONALFUEL\" - not found.\n   ** Warning ** Output:Meter: invalid Key Name=\"HEATRECOVERY:DISTRICTCOOLING\" - not found.\n   ** Warning ** Output:Meter: invalid Key Name=\"HEATRECOVERY:DISTRICTHEATING\" - not found.\n   ** Warning ** Output:Meter: invalid Key Name=\"HEATRECOVERY:WATER\" - not found.\n   ** Warning ** Output:Meter: invalid Key Name=\"WATERSYSTEMS:ADDITIONALFUEL\" - not found.\n   ** Warning ** Output:Meter: invalid Key Name=\"WATERSYSTEMS:DISTRICTCOOLING\" - not found.\n   ** Warning ** Output:Meter: invalid Key Name=\"WATERSYSTEMS:DISTRICTHEATING\" - not found.\n   ** Warning ** Output:Meter: invalid Key Name=\"REFRIGERATION:ELECTRICITY\" - not found.\n   ** Warning ** Output:Meter: invalid Key Name=\"REFRIGERATION:GAS\" - not found.\n   ** Warning ** Output:Meter: invalid Key Name=\"REFRIGERATION:ADDITIONALFUEL\" - not found.\n   ** Warning ** Output:Meter: invalid Key Name=\"REFRIGERATION:DISTRICTCOOLING\" - not found.\n   ** Warning ** Output:Meter: invalid Key Name=\"REFRIGERATION:DISTRICTHEATING\" - not found.\n   ** Warning ** Output:Meter: invalid Key Name=\"REFRIGERATION:WATER\" - not found.\n   ** Warning ** Output:Meter: invalid Key Name=\"GENERATORS:ELECTRICITY\" - not found.\n   ** Warning ** Output:Meter: invalid Key Name=\"GENERATORS:GAS\" - not found.\n   ** Warning ** Output:Meter: invalid Key Name=\"GENERATORS:ADDITIONALFUEL\" - not found.\n   ** Warning ** Output:Meter: invalid Key Name=\"GENERATORS:DISTRICTCOOLING\" - not found.\n   ** Warning ** Output:Meter: invalid Key Name=\"GENERATORS:DISTRICTHEATING\" - not found.\n   ** Warning ** Output:Meter: invalid Key Name=\"GENERATORS:WATER\" - not found.\n   ** Warning ** Output:Meter: invalid Key Name=\"ADDITIONALFUEL:FACILITY\" - not found.\n   ** Warning ** Output:Meter: invalid Key Name=\"DISTRICTCOOLING:FACILITY\" - not found.\n   ** Warning ** Output:Meter: invalid Key Name=\"DISTRICTHEATING:FACILITY\" - not found.\n   ** Warning ** Output:Meter:MeterFileOnly requested for \"Electricity:Facility\" (TimeStep), already on \"Output:Meter\". Will report to both eplusout.eso and eplusout.mtr\n   ** Warning ** Output:Meter:MeterFileOnly: invalid Key Name=\"ELECTRICITYPRODUCED:FACILITY\" - not found.\n   ** Warning ** Output:Meter:MeterFileOnly requested for \"Gas:Facility\" (TimeStep), already on \"Output:Meter\". Will report to both eplusout.eso and eplusout.mtr\n   ** Warning ** Output:Meter:MeterFileOnly: invalid Key Name=\"DISTRICTCOOLING:FACILITY\" - not found.\n   ** Warning ** Output:Meter:MeterFileOnly: invalid Key Name=\"DISTRICTHEATING:FACILITY\" - not found.\n   ************* Testing Individual Branch Integrity\n   ************* All Branches passed integrity testing\n   ************* Testing Individual Supply Air Path Integrity\n   ************* All Supply Air Paths passed integrity testing\n   ************* Testing Individual Return Air Path Integrity\n   ************* All Return Air Paths passed integrity testing\n   ************* No node connection errors were found.\n   ************* Beginning Simulation\n   ** Severe  ** CheckWarmupConvergence: Loads Initialization, Zone=\"BUILDING STORY 2 THERMALZONE\" did not converge after 25 warmup days.\n   **   ~~~   ** See Warmup Convergence Information in .eio file for details.\n   **   ~~~   ** ...Environment(RunPeriod)=\"RUN PERIOD 1\"\n   **   ~~~   ** ..Max Temp Comparison = 3.53E-002 vs Temperature Convergence Tolerance=0.40 - Pass Convergence\n   **   ~~~   ** ..Min Temp Comparison = 0.22 vs Temperature Convergence Tolerance=0.40 - Pass Convergence\n   **   ~~~   ** ..Max Heat Load Comparison = 1.7720E-002 vs Loads Convergence Tolerance=4.00E-002 - Pass Convergence\n   **   ~~~   ** ..Max Cool Load Comparison = 0.2932 vs Loads Convergence Tolerance=4.00E-002 - Fail Convergence\n   ** Warning ** Processing Monthly Tabular Reports: Variable names not valid for this simulation\n   **   ~~~   ** ...use Output:Diagnostics,DisplayExtraWarnings; to show more details on individual variables.\n   ** Warning ** CoolingTower:VariableSpeed \"PROPELLER OR AXIAL VARIABLE SPEED FAN OPEN COOLING TOWER 40.2 GPM/HP\" - Tower range temperature is outside model boundaries at 0.13.\n   **   ~~~   **  ...Valid range = 1.11 to 11.11. Occurrence info = RUN PERIOD 1, 01/01 00:03 - 00:06\n   **   ~~~   **  ...Tower range temperature passed to the model = 0.13491\n   **   ~~~   **  ...Range temperatures outside model boundaries may not adversely affect tower performance.\n   **   ~~~   **  ...This is not an unexpected occurrence when simulating actual conditions.\n   ** Warning ** CoolingTower:VariableSpeed \"PROPELLER OR AXIAL VARIABLE SPEED FAN OPEN COOLING TOWER 40.2 GPM/HP\" - Inlet air wet-bulb temperature is outside model boundaries at -1.54.\n   **   ~~~   **  ...Valid range = -1.00 to 26.67. Occurrence info = RUN PERIOD 1, 01/01 00:03 - 00:06\n   **   ~~~   **  ...Inlet air wet-bulb temperature passed to the model = -1.000000\n   **   ~~~   **  ...Wet-bulb temperatures outside model boundaries may not adversely affect tower performance.\n   ** Warning ** CoolingTower:VariableSpeed \"PROPELLER OR AXIAL VARIABLE SPEED FAN OPEN COOLING TOWER 40.2 GPM/HP\" - Tower approach temperature is outside model boundaries at 22.66.\n   **   ~~~   **  ...Valid range = 1.11 to 11.11. Occurrence info = RUN PERIOD 1, 01/01 00:03 - 00:06\n   **   ~~~   **  ...Tower approach temperature passed to the model = 22.65562\n   **   ~~~   **  ...Approach temperatures outside model boundaries may not adversely affect tower performance.\n   **   ~~~   **  ...This is not an unexpected occurrence when simulating actual conditions.\n   ** Warning ** CoolingTower:VariableSpeed \"PROPELLER OR AXIAL VARIABLE SPEED FAN OPEN COOLING TOWER 40.2 GPM/HP\" - Inlet air wet-bulb temperature is outside model boundaries at -1.54.\n   **   ~~~   **  ...Valid range = -1.00 to 26.67. Occurrence info = RUN PERIOD 1, 01/01 00:06 - 00:09\n   **   ~~~   **  ...Inlet air wet-bulb temperature passed to the model = -1.000000\n   **   ~~~   **  ...Wet-bulb temperatures outside model boundaries may not adversely affect tower performance.\n   ** Warning ** CoolingTower:VariableSpeed \"PROPELLER OR AXIAL VARIABLE SPEED FAN OPEN COOLING TOWER 40.2 GPM/HP\" - Inlet air wet-bulb temperature is outside model boundaries at -1.54.\n   **   ~~~   **  ...Valid range = -1.00 to 26.67. Occurrence info = RUN PERIOD 1, 01/01 00:09 - 00:12\n   **   ~~~   **  ...Inlet air wet-bulb temperature passed to the model = -1.000000\n   **   ~~~   **  ...Wet-bulb temperatures outside model boundaries may not adversely affect tower performance.\n   ** Warning ** CoolingTower:VariableSpeed \"PROPELLER OR AXIAL VARIABLE SPEED FAN OPEN COOLING TOWER 40.2 GPM/HP\" - Inlet air wet-bulb temperature is outside model boundaries at -1.54.\n   **   ~~~   **  ...Valid range = -1.00 to 26.67. Occurrence info = RUN PERIOD 1, 01/01 00:12 - 00:15\n   **   ~~~   **  ...Inlet air wet-bulb temperature passed to the model = -1.000000\n   **   ~~~   **  ...Wet-bulb temperatures outside model boundaries may not adversely affect tower performance.\n   ** Warning ** CoolingTower:VariableSpeed \"PROPELLER OR AXIAL VARIABLE SPEED FAN OPEN COOLING TOWER 40.2 GPM/HP\" - Inlet air wet-bulb temperature is outside model boundaries at -1.42.\n   **   ~~~   **  ...Valid range = -1.00 to 26.67. Occurrence info = RUN PERIOD 1, 01/01 00:15 - 00:22\n   **   ~~~   **  ...Inlet air wet-bulb temperature passed to the model = -1.000000\n   **   ~~~   **  ...Wet-bulb temperatures outside model boundaries may not adversely affect tower performance.\n   ** Severe  ** FindRootSimpleController: Controller error for controller = \"1 ZONE VAV 2 CLG COIL CONTROLLER\"\n   **   ~~~   **  Environment=RUN PERIOD 1, at Simulation time=01/31 18:15 - 18:30\n   **   ~~~   **   Controller function is inconsistent with user specified controller action = Reverse action\n   **   ~~~   **   Actuator will be set to maximum action\n   **   ~~~   ** Controller control type=Temperature\n   **   ~~~   ** Controller temperature setpoint = 12.20 [C]\n   **   ~~~   ** Controller sensed temperature = 16.61 [C]\n   **   ~~~   ** Controller actuator mass flow rate set to 184.72 [kg/s]\n   **   ~~~   ** Controller actuator temperature = 16.68 [C]\n   **   ~~~   **   Note: Chilled water coils should be reverse action and the entering chilled\n   **   ~~~   **         water temperature (controller actuator temperature) should be below the setpoint temperature\n   **   ~~~   **   Note: Hot water coils should be normal action and the entering hot\n   **   ~~~   **         water temperature (controller actuator temperature) should be above the setpoint temperature\n   ** Warning ** SimHVAC: Maximum iterations (20) exceeded for all HVAC loops, at RUN PERIOD 1, 02/06 11:10 - 11:15\n   **   ~~~   ** The solution for one or more of the Air Loop HVAC systems did not appear to converge\n   **   ~~~   ** ...use Output:Diagnostics,DisplayExtraWarnings; to show more details on each max iteration exceeded.\n   ** Warning ** SimHVAC: Maximum iterations (20) exceeded for all HVAC loops, at RUN PERIOD 1, 02/06 13:00 - 13:15\n   **   ~~~   ** The solution for one or more of the Air Loop HVAC systems did not appear to converge\n   ** Warning ** SimHVAC: Maximum iterations (20) exceeded for all HVAC loops, at RUN PERIOD 1, 02/06 13:15 - 13:30\n   **   ~~~   ** The solution for one or more of the Air Loop HVAC systems did not appear to converge\n   ** Warning ** SimHVAC: Maximum iterations (20) exceeded for all HVAC loops, at RUN PERIOD 1, 02/06 13:30 - 13:45\n   **   ~~~   ** The solution for one or more of the Air Loop HVAC systems did not appear to converge\n   ** Warning ** SimHVAC: Maximum iterations (20) exceeded for all HVAC loops, at RUN PERIOD 1, 02/06 13:45 - 14:00\n   **   ~~~   ** The solution for one or more of the Air Loop HVAC systems did not appear to converge\n   ** Warning ** SimHVAC: Maximum iterations (20) exceeded for all HVAC loops, at RUN PERIOD 1, 02/07 12:00 - 12:15\n   ** Warning ** More than 4% of time (350.4 hours) uncomfortable in one or more zones \n   **   ~~~   ** Based on ASHRAE 55-2004 graph (Section 5.2.1.1)\n   **   ~~~   ** During Environment [01/01/2019 - 12/31/2019]: RUN PERIOD 1\n   **   ~~~   ** 903.0 hours were uncomfortable in zone: BUILDING STORY 1 THERMALZONE\n   **   ~~~   ** 6145.5 hours were uncomfortable in zone: BUILDING STORY 3 THERMALZONE\n   **   ~~~   ** 590.8 hours were uncomfortable in zone: BUILDING STORY 4 THERMALZONE\n   ** Warning ** The resource referenced by LifeCycleCost:UsePriceEscalation= \"U.S. AVG  COMMERCIAL-ELECTRICITY\" has no energy cost. \n   **   ~~~   ** ... It is likely that the wrong resource is used. The resource should match the meter used in Utility:Tariff.\n   ** Warning ** The resource referenced by LifeCycleCost:UsePriceEscalation= \"U.S. AVG  COMMERCIAL-DISTILLATE OIL\" has no energy cost. \n   **   ~~~   ** ... It is likely that the wrong resource is used. The resource should match the meter used in Utility:Tariff.\n   ** Warning ** The resource referenced by LifeCycleCost:UsePriceEscalation= \"U.S. AVG  COMMERCIAL-RESIDUAL OIL\" has no energy cost. \n   **   ~~~   ** ... It is likely that the wrong resource is used. The resource should match the meter used in Utility:Tariff.\n   ** Warning ** The resource referenced by LifeCycleCost:UsePriceEscalation= \"U.S. AVG  COMMERCIAL-NATURAL GAS\" has no energy cost. \n   **   ~~~   ** ... It is likely that the wrong resource is used. The resource should match the meter used in Utility:Tariff.\n   ** Warning ** The resource referenced by LifeCycleCost:UsePriceEscalation= \"U.S. AVG  COMMERCIAL-COAL\" has no energy cost. \n   **   ~~~   ** ... It is likely that the wrong resource is used. The resource should match the meter used in Utility:Tariff.\n   ************* Simulation Error Summary *************\n   ** Warning ** The following Report Variables were requested but not generated -- check.rdd file\n   **   ~~~   ** Either the IDF did not contain these elements, the variable name is misspelled,\n   **   ~~~   ** or the requested variable is an advanced output which requires Output : Diagnostics, DisplayAdvancedReportVariables;\n   ************* Key=*, VarName=FANGERPMV, Frequency=TimeStep\n   ************* Key=*, VarName=FANGERPPD, Frequency=TimeStep\n   ************* Key=*, VarName=TIME NOT COMFORTABLE SUMMER CLOTHES, Frequency=TimeStep\n   ************* Key=*, VarName=TIME NOT COMFORTABLE WINTER CLOTHES, Frequency=TimeStep\n   ************* Key=*, VarName=TIME NOT COMFORTABLE SUMMER OR WINTER CLOTHES, Frequency=TimeStep\n   ************* Key=*, VarName=DISTRICT COOLING CHILLED WATER RATE, Frequency=TimeStep\n   ************* Key=*, VarName=DISTRICT COOLING MASS FLOW RATE, Frequency=TimeStep\n   ************* Key=*, VarName=DISTRICT COOLING INLET TEMPERATURE, Frequency=TimeStep\n   ************* Key=*, VarName=DISTRICT COOLING OUTLET TEMPERATURE, Frequency=TimeStep\n   ************* Key=*, VarName=DISTRICT HEATING HOT WATER RATE, Frequency=TimeStep\n   ************* Key=*, VarName=DISTRICT HEATING MASS FLOW RATE, Frequency=TimeStep\n   ************* Key=*, VarName=DISTRICT HEATING INLET TEMPERATURE, Frequency=TimeStep\n   ************* Key=*, VarName=DISTRICT HEATING OUTLET TEMPERATURE, Frequency=TimeStep\n   ************* There are 10 unused schedules in input.\n   ************* There are 15 unused week schedules in input.\n   ************* There are 40 unused day schedules in input.\n   ************* Use Output:Diagnostics,DisplayUnusedSchedules; to see them.\n   *************\n   ************* ===== Recurring Error Summary =====\n   ************* The following recurring error messages occurred.\n   *************\n   *************  ** Warning ** CoolingTower:VariableSpeed \"PROPELLER OR AXIAL VARIABLE SPEED FAN OPEN COOLING TOWER 40.2 GPM/HP\" - Tower range temperature is out of range error continues...\n   *************  **   ~~~   **   This error occurred 49235 total times;\n   *************  **   ~~~   **   during Warmup 0 times;\n   *************  **   ~~~   **   during Sizing 0 times.\n   *************  **   ~~~   **   Max=1.11108  Min=5.176378E-007\n   *************\n   *************  ** Warning ** CoolingTower:VariableSpeed \"PROPELLER OR AXIAL VARIABLE SPEED FAN OPEN COOLING TOWER 40.2 GPM/HP\" - Tower approach temperature is out of range error continues...\n   *************  **   ~~~   **   This error occurred 41972 total times;\n   *************  **   ~~~   **   during Warmup 0 times;\n   *************  **   ~~~   **   during Sizing 0 times.\n   *************  **   ~~~   **   Max=40.506779  Min=11.111112\n   *************\n   *************  ** Warning ** CoolingTower:VariableSpeed \"PROPELLER OR AXIAL VARIABLE SPEED FAN OPEN COOLING TOWER 40.2 GPM/HP\" - Inlet air wet-bulb temperature is out of range error continues...\n   *************  **   ~~~   **   This error occurred 13135 total times;\n   *************  **   ~~~   **   during Warmup 0 times;\n   *************  **   ~~~   **   during Sizing 0 times.\n   *************  **   ~~~   **   Max=-1.002814  Min=-19.395668\n   *************\n   *************  ** Severe  ** FindRootSimpleController: Previous controller action error continues for controller = 1 ZONE VAV 2 CLG COIL CONTROLLER\n   *************  **   ~~~   **   This error occurred 2 total times;\n   *************  **   ~~~   **   during Warmup 0 times;\n   *************  **   ~~~   **   during Sizing 0 times.\n   *************\n   *************\n   ************* ===== Final Error Summary =====\n   ************* The following error categories occurred.  Consider correcting or noting.\n   ************* Loads Initialization did not Converge\n   ************* ..1) very high thermal mass such as very thick concrete (solution: increase max number of warmup\n   ************* ..   days in the BUILDING object);\n   ************* ..2) moderate mass and inadequate space conditioning such that the building keeps getting warmer\n   ************* ..   and warmer on successive days (solution: add HVAC, check building thermal properties,\n   ************* ..   check if infiltration is included, make sure HVAC properly controlled);\n   ************* ..3) a soil layer modeled below the concrete slab - (solution remove this layer and read about\n   ************* ..   ground temperatures in the Auxiliary Programs document).\n   ************* ..4) unreasonable (too small) limits in the BUILDING object for temperature (.4 default) or\n   ************* ..   loads tolerances (.04 default)\n   ************* Nominally Unused Constructions\n   ************* ..The nominally unused constructions warning is provided to alert you to potential conditions that can cause\n   ************* ..extra time during simulation. Each construction is calculated by the algorithm indicated in the HeatBalanceAlgorithm\n   ************* ..object. You may remove the constructions indicated (when you use the DisplayExtraWarnings option).\n   *************\n   ************* EnergyPlus Warmup Error Summary. During Warmup: 0 Warning; 1 Severe Errors.\n   ************* EnergyPlus Sizing Error Summary. During Sizing: 27 Warning; 0 Severe Errors.\n   ************* EnergyPlus Completed Successfully-- 104479 Warning; 4 Severe Errors; Elapsed Time=00hr 07min  2.82sec\n",
   "file_paths" : [
      "/Users/nmoore/github/urbanopt-cli/spec/test_directory/run/two_building_scenario/1/generated_files",
      "/Users/nmoore/github/urbanopt-cli/spec/test_directory/mappers/../weather/",
      "/Users/nmoore/.rbenv/versions/2.2.4/lib/ruby/gems/2.2.0/gems/openstudio-model-articulation-0.1.1/lib/files",
      "/Users/nmoore/.rbenv/versions/2.2.4/lib/ruby/gems/2.2.0/gems/urbanopt-reopt-0.2.0/lib/files",
      "/Users/nmoore/.rbenv/versions/2.2.4/lib/ruby/gems/2.2.0/gems/openstudio-common-measures-0.1.2/lib/files",
      "/Users/nmoore/.rbenv/versions/2.2.4/lib/ruby/gems/2.2.0/gems/openstudio-extension-0.1.6/lib/files",
      "./files",
      "./weather",
      "../../files",
      "../../weather",
      "./"
   ],
   "hash" : "FD8268D4",
   "measure_paths" : [
      "/Users/nmoore/.rbenv/versions/2.2.4/lib/ruby/gems/2.2.0/gems/openstudio-model-articulation-0.1.1/lib/measures",
      "/Users/nmoore/.rbenv/versions/2.2.4/lib/ruby/gems/2.2.0/gems/urbanopt-reopt-0.2.0/lib/measures",
      "/Users/nmoore/.rbenv/versions/2.2.4/lib/ruby/gems/2.2.0/gems/openstudio-common-measures-0.1.2/lib/measures",
      "/Users/nmoore/.rbenv/versions/2.2.4/lib/ruby/gems/2.2.0/gems/urbanopt-scenario-0.2.0/lib/measures",
      "/Users/nmoore/.rbenv/versions/2.2.4/lib/ruby/gems/2.2.0/gems/urbanopt-geojson-0.2.0/lib/measures",
      "/Users/nmoore/.rbenv/versions/2.2.4/lib/ruby/gems/2.2.0/gems/openstudio-extension-0.1.6/lib/measures"
   ],
   "name" : "Mixed_use 1",
   "run_directory" : "/Users/nmoore/github/urbanopt-cli/spec/test_directory/run/two_building_scenario/1",
   "seed_file" : null,
   "started_at" : "20200413T210240Z",
   "steps" : [
      {
         "arguments" : {
            "begin_date" : "2019-01-01",
            "end_date" : "2019-12-31",
            "timesteps_per_hour" : 4
         },
         "measure_dir_name" : "set_run_period",
         "result" : {
            "completed_at" : "20200413T210240Z",
            "measure_class_name" : "SetRunPeriod",
            "measure_display_name" : "SetRunPeriod",
            "measure_name" : "set_run_period",
            "measure_taxonomy" : "Envelope.Form",
            "measure_type" : "ModelMeasure",
            "measure_uid" : "7a84292a-3975-4ab3-9284-6edabcbe750b",
            "measure_version_id" : "c3a54143-dcda-4280-850b-c26cd7260211",
            "measure_version_modified" : "20200229T024314Z",
            "measure_xml_checksum" : "2AF3A68E",
            "started_at" : "20200413T210240Z",
            "stderr" : "",
            "stdout" : "",
            "step_errors" : [],
            "step_files" : [],
            "step_info" : [],
            "step_result" : "Success",
            "step_values" : [
               {
                  "name" : "timesteps_per_hour",
                  "value" : 4
               },
               {
                  "name" : "begin_date",
                  "value" : "2019-01-01"
               },
               {
                  "name" : "end_date",
                  "value" : "2019-12-31"
               }
            ],
            "step_warnings" : []
         }
      },
      {
         "arguments" : {
            "__SKIP__" : false,
            "climate_zone" : "ASHRAE 169-2013-6A",
            "weather_file_name" : "USA_NY_Buffalo-Greater.Buffalo.Intl.AP.725280_TMY3.epw"
         },
         "measure_dir_name" : "ChangeBuildingLocation",
         "result" : {
            "completed_at" : "20200413T210242Z",
            "measure_class_name" : "ChangeBuildingLocation",
            "measure_display_name" : "ChangeBuildingLocation",
            "measure_name" : "change_building_location",
            "measure_taxonomy" : "Whole Building.Space Types",
            "measure_type" : "ModelMeasure",
            "measure_uid" : "d4db4971-f5ba-11e3-a3ac-0800200c9a66",
            "measure_version_id" : "ee75726e-6dad-4da9-9f64-a40f4e79bd92",
            "measure_version_modified" : "20200229T024319Z",
            "measure_xml_checksum" : "057E8D9D",
            "started_at" : "20200413T210240Z",
            "stderr" : "",
            "stdout" : "[openstudio.model.YearDescription] <1> 'UseWeatherFile' is not yet a supported option for YearDescription\n[openstudio.model.YearDescription] <1> 'UseWeatherFile' is not yet a supported option for YearDescription\n",
            "step_errors" : [],
            "step_files" : [],
            "step_final_condition" : "The final weather file is Buffalo Niagara Intl Ap and the model has 3 design day objects.",
            "step_info" : [
               "city is Buffalo Niagara Intl Ap. State is NY",
               "mean dry bulb is 8.966666666666667",
               "Adding object Buffalo Niagara Intl Ap Ann Clg .4% Condns DB=>MWB",
               "Adding object Buffalo Niagara Intl Ap Ann Clg .4% Condns WB=>MDB",
               "Adding object Buffalo Niagara Intl Ap Ann Htg 99.6% Condns DB",
               "Setting Climate Zone to 6A"
            ],
            "step_initial_condition" : "No weather file is set. The model has 0 design day objects",
            "step_result" : "Success",
            "step_values" : [
               {
                  "name" : "weather_file_name",
                  "value" : "USA_NY_Buffalo-Greater.Buffalo.Intl.AP.725280_TMY3.epw"
               },
               {
                  "name" : "climate_zone",
                  "value" : "ASHRAE 169-2013-6A"
               },
               {
                  "name" : "set_year",
                  "value" : 0
               },
               {
                  "name" : "use_upstream_args",
                  "value" : true
               },
               {
                  "name" : "epw_gsub",
                  "value" : "Do Nothing"
               },
               {
                  "name" : "reported_climate_zone",
                  "value" : "ASHRAE 169-2013-6A"
               }
            ],
            "step_warnings" : []
         }
      },
      {
         "arguments" : {
            "__SKIP__" : false,
            "bar_division_method" : "Multiple Space Types - Individual Stories Sliced",
            "bldg_type_a" : "LargeOffice",
            "bldg_type_a_num_units" : 0,
            "bldg_type_b" : "FullServiceRestaurant",
            "bldg_type_b_fract_bldg_area" : 0.5,
            "bldg_type_b_num_units" : 0,
            "bldg_type_c" : "RetailStripmall",
            "bldg_type_c_fract_bldg_area" : 0,
            "bldg_type_c_num_units" : 0,
            "bldg_type_d" : "LargeHotel",
            "bldg_type_d_fract_bldg_area" : 0,
            "bldg_type_d_num_units" : 0,
            "building_rotation" : 0,
            "floor_height" : 10,
            "ns_to_ew_ratio" : 0,
            "num_stories_above_grade" : 4,
            "num_stories_below_grade" : 0,
            "party_wall_fraction" : 0,
            "single_floor_area" : 188046,
            "story_multiplier" : "None",
            "template" : "90.1-2013",
            "wwr" : 0
         },
         "measure_dir_name" : "create_bar_from_building_type_ratios",
         "result" : {
            "completed_at" : "20200413T210320Z",
            "measure_class_name" : "CreateBarFromBuildingTypeRatios",
            "measure_display_name" : "Create Bar From Building Type Ratios",
            "measure_name" : "create_bar_from_building_type_ratios",
            "measure_taxonomy" : "Envelope.Form",
            "measure_type" : "ModelMeasure",
            "measure_uid" : "6e3a14f8-c3c7-4e03-bc51-bef8a52e1a05",
            "measure_version_id" : "98068f42-8546-42bc-b4a5-6bfcd0e332d4",
            "measure_version_modified" : "20200229T024044Z",
            "measure_xml_checksum" : "2AF3A68E",
            "started_at" : "20200413T210301Z",
            "stderr" : "",
            "stdout" : "",
            "step_errors" : [],
            "step_files" : [],
            "step_final_condition" : "The building finished with 42 spaces.",
            "step_info" : [
               "Replacing argument named climate_zone from current measure with a value of ASHRAE 169-2013-6A from ChangeBuildingLocation.",
               "0.0 value for aspect ratio will be replaced with smart default for LargeOffice of 1.5.",
               "0.0 value for minimum perimeter multiplier will be replaced with smart default for LargeOffice of 1.0.",
               "0.0 value for window to wall ratio will be replaced with smart default for LargeOffice of 0.15.",
               "Creating Space Types for LargeOffice.",
               "Creating Space Types for FullServiceRestaurant.",
               "Making bar with length of 531 ft and width of 354 ft",
               "Intersecting and matching surfaces in model, this will create additional geometry.",
               "Created bar envelope with floor area of 752,184 ft^2. Total building area is 752,184 ft^2."
            ],
            "step_initial_condition" : "The building started with 0 spaces.",
            "step_result" : "Success",
            "step_values" : [
               {
                  "name" : "bldg_type_a",
                  "value" : "LargeOffice"
               },
               {
                  "name" : "bldg_type_a_num_units",
                  "value" : 0
               },
               {
                  "name" : "bldg_type_b",
                  "value" : "FullServiceRestaurant"
               },
               {
                  "name" : "bldg_type_b_fract_bldg_area",
                  "value" : 0.5
               },
               {
                  "name" : "bldg_type_b_num_units",
                  "value" : 0
               },
               {
                  "name" : "bldg_type_c",
                  "value" : "RetailStripmall"
               },
               {
                  "name" : "bldg_type_c_fract_bldg_area",
                  "value" : 0
               },
               {
                  "name" : "bldg_type_c_num_units",
                  "value" : 0
               },
               {
                  "name" : "bldg_type_d",
                  "value" : "LargeHotel"
               },
               {
                  "name" : "bldg_type_d_fract_bldg_area",
                  "value" : 0
               },
               {
                  "name" : "bldg_type_d_num_units",
                  "value" : 0
               },
               {
                  "name" : "total_bldg_floor_area",
                  "value" : 10000
               },
               {
                  "name" : "single_floor_area",
                  "value" : 188046
               },
               {
                  "name" : "floor_height",
                  "value" : 10
               },
               {
                  "name" : "custom_height_bar",
                  "value" : true
               },
               {
                  "name" : "num_stories_above_grade",
                  "value" : 4
               },
               {
                  "name" : "num_stories_below_grade",
                  "value" : 0
               },
               {
                  "name" : "building_rotation",
                  "value" : 0
               },
               {
                  "name" : "template",
                  "value" : "90.1-2013"
               },
               {
                  "name" : "ns_to_ew_ratio",
                  "value" : 0
               },
               {
                  "name" : "perim_mult",
                  "value" : 0
               },
               {
                  "name" : "bar_sep_dist_mult",
                  "value" : 10
               },
               {
                  "name" : "wwr",
                  "value" : 0
               },
               {
                  "name" : "party_wall_fraction",
                  "value" : 0
               },
               {
                  "name" : "party_wall_stories_north",
                  "value" : 0
               },
               {
                  "name" : "party_wall_stories_south",
                  "value" : 0
               },
               {
                  "name" : "party_wall_stories_east",
                  "value" : 0
               },
               {
                  "name" : "party_wall_stories_west",
                  "value" : 0
               },
               {
                  "name" : "bottom_story_ground_exposed_floor",
                  "value" : true
               },
               {
                  "name" : "top_story_exterior_exposed_roof",
                  "value" : true
               },
               {
                  "name" : "story_multiplier",
                  "value" : "None"
               },
               {
                  "name" : "make_mid_story_surfaces_adiabatic",
                  "value" : false
               },
               {
                  "name" : "bar_division_method",
                  "value" : "Multiple Space Types - Individual Stories Sliced"
               },
               {
                  "name" : "double_loaded_corridor",
                  "value" : "Primary Space Type"
               },
               {
                  "name" : "space_type_sort_logic",
                  "value" : "Building Type > Size"
               },
               {
                  "name" : "use_upstream_args",
                  "value" : true
               },
               {
                  "name" : "climate_zone",
                  "value" : "Lookup From Stat File"
               },
               {
                  "name" : "wall_area_ip",
                  "units" : "ft^2",
                  "value" : 70813.558023870006
               },
               {
                  "name" : "ns_wall_area_ip",
                  "units" : "ft^2",
                  "value" : 42488.134814322031
               },
               {
                  "name" : "ew_wall_area_ip",
                  "units" : "ft^2",
                  "value" : 28325.423209547971
               },
               {
                  "name" : "floor_area_to_perim_ratio",
                  "value" : 32.375958728513339
               },
               {
                  "name" : "bar_width",
                  "units" : "ft",
                  "value" : 354.06779011934987
               }
            ],
            "step_warnings" : [
               "User-defined single floor area was used for calculation of total building floor area",
               "Cannot use custom height bar with single floor area method, will not create custom height bar."
            ]
         }
      },
      {
         "arguments" : {
            "__SKIP__" : false,
            "add_hvac" : false,
            "add_refrigeration" : false,
            "template" : "90.1-2013"
         },
         "measure_dir_name" : "create_typical_building_from_model",
         "name" : "create_typical_building_from_model 1",
         "result" : {
            "completed_at" : "20200413T210340Z",
            "measure_class_name" : "CreateTypicalBuildingFromModel",
            "measure_display_name" : "Create Typical Building from Model",
            "measure_name" : "create_typical_building_from_model",
            "measure_taxonomy" : "Whole Building.Space Types",
            "measure_type" : "ModelMeasure",
            "measure_uid" : "339a2e3a-273c-4494-bb50-bfe586a0647c",
            "measure_version_id" : "41239158-445a-414c-a6f0-2fba3a7c696c",
            "measure_version_modified" : "20200229T024052Z",
            "measure_xml_checksum" : "EE13F09F",
            "started_at" : "20200413T210321Z",
            "stderr" : "",
            "stdout" : "[utilities.geometry.joinAll] <1> Expected polygons to join together\n",
            "step_errors" : [],
            "step_files" : [],
            "step_final_condition" : "The building finished with 1564 objects.",
            "step_info" : [
               "Replacing argument named climate_zone from current measure with a value of ASHRAE 169-2013-6A from ChangeBuildingLocation.",
               "Replacing argument named template from current measure with a value of 90.1-2013 from create_bar_from_building_type_ratios.",
               "Adding loads to space type named FullServiceRestaurant Dining - 90.1-2013",
               "Adding loads to space type named FullServiceRestaurant Kitchen - 90.1-2013",
               "Adding loads to space type named Office WholeBuilding - Lg Office - 90.1-2013",
               "Adding loads to space type named Office OfficeLarge Main Data Center - 90.1-2013",
               "Adding loads to space type named Office OfficeLarge Data Center - 90.1-2013",
               "Using climate zone ASHRAE 169-2013-6A from user arguments",
               "Adding default construction set named Res 90.1-2013 - Office - ASHRAE 169-2013-6A",
               "Adding 35.0 elevators each with power of 16,055 (W), plus lights and fans.",
               "Adding Exterior Lights named Parking Areas and Drives Def (W/ft^2) with design level of 0.1 * 1,768,846.",
               "Adding Exterior Lights named Building Facades Def (W/ft^2) with design level of 0.15 * 17,703.",
               "Adding Exterior Lights named Main Entries Def (W/ft) with design level of 30.0 * 75.",
               "Adding Exterior Lights named Other Doors Def (W/ft) with design level of 20.0 * 226.",
               "Adding 2,885 (cfm) of exhaust to Zone FullServiceRestaurant Kitchen A  - Story Mid2, with 2,694 (cfm) of makeup air from Zone FullServiceRestaurant Dining A  - Story Mid2",
               "Adding 157 (cfm) of exhaust to Zone FullServiceRestaurant Kitchen A end_a - Story Mid2",
               "Adding 62,331 (cfm) of exhaust to Zone FullServiceRestaurant Kitchen B  - Story Mid2, with 58,199 (cfm) of makeup air from Zone FullServiceRestaurant Dining B  - Story Mid2",
               "Adding 3,403 (cfm) of exhaust to Zone FullServiceRestaurant Kitchen B end_a - Story Mid2",
               "Adding 2,885 (cfm) of exhaust to Zone FullServiceRestaurant Kitchen C  - Story Mid2, with 2,694 (cfm) of makeup air from Zone FullServiceRestaurant Dining C  - Story Mid2",
               "Adding 157 (cfm) of exhaust to Zone FullServiceRestaurant Kitchen C end_a - Story Mid2",
               "Adding FullServiceRestaurant Kitchen - 90.1-2013 Service Water Loop to the building. It has 1 water use connections.",
               "Adding Office Shared Service Water Loop to the building. It has 1 water use connections.",
               "Assigning FullServiceRestaurant Dining - 90.1-2013 Thermostat to thermal zones with FullServiceRestaurant Dining - 90.1-2013 assigned.",
               "Assigning FullServiceRestaurant Kitchen - 90.1-2013 Thermostat to thermal zones with FullServiceRestaurant Kitchen - 90.1-2013 assigned.",
               "Assigning Office WholeBuilding - Lg Office - 90.1-2013 Thermostat to thermal zones with Office WholeBuilding - Lg Office - 90.1-2013 assigned.",
               "Assigning Office OfficeLarge Main Data Center - 90.1-2013 Thermostat to thermal zones with Office OfficeLarge Main Data Center - 90.1-2013 assigned.",
               "Assigning Office OfficeLarge Data Center - 90.1-2013 Thermostat to thermal zones with Office OfficeLarge Data Center - 90.1-2013 assigned.",
               "Using OpenStudio Standards version 0.2.11 with template 90.1-2013.",
               "Loading OpenStudio Standards data for 90.1-2013",
               "FullServiceRestaurant Dining had no people, one has been created.",
               "FullServiceRestaurant Dining set occupancy to 70.0 people/1000 ft^2.",
               "FullServiceRestaurant Dining had no lights, one has been created.",
               "FullServiceRestaurant Dining set LPD to 0.89 W/ft^2.",
               "FullServiceRestaurant Dining had no electric equipment, one has been created.",
               "FullServiceRestaurant Dining set electric EPD to 6.032 W/ft^2.",
               "FullServiceRestaurant Dining had no ventilation specification, one has been created.",
               "FullServiceRestaurant Dining set ventilation per area to 0.18 cfm/ft^2.",
               "FullServiceRestaurant Dining set ventilation per person to 7.5 cfm/person.",
               "FullServiceRestaurant Dining set occupancy schedule to RestaurantSitDown BLDG_OCC_SCH.",
               "FullServiceRestaurant Dining set occupant activity schedule to RestaurantSitDown ACTIVITY_SCH.",
               "FullServiceRestaurant Dining set lighting schedule to RestaurantSitDown BLDG_LIGHT_DINING_SCH_2013.",
               "FullServiceRestaurant Dining set electric equipment schedule to RestaurantSitDown BLDG_EQUIP_SCH.",
               "FullServiceRestaurant Dining set infiltration schedule to RestaurantSitDown INFIL_HALF_ON_SCH.",
               "FullServiceRestaurant Kitchen had no people, one has been created.",
               "FullServiceRestaurant Kitchen set occupancy to 5.0 people/1000 ft^2.",
               "FullServiceRestaurant Kitchen had no lights, one has been created.",
               "FullServiceRestaurant Kitchen set LPD to 1.21 W/ft^2.",
               "FullServiceRestaurant Kitchen had no electric equipment, one has been created.",
               "FullServiceRestaurant Kitchen set electric EPD to 37.53 W/ft^2.",
               "FullServiceRestaurant Kitchen had no gas equipment, one has been created.",
               "FullServiceRestaurant Kitchen set gas EPD to 205.81 Btu/hr*ft^2.",
               "FullServiceRestaurant Kitchen had no ventilation specification, one has been created.",
               "FullServiceRestaurant Kitchen set ventilation per area to 0.18 cfm/ft^2.",
               "FullServiceRestaurant Kitchen set ventilation per person to 7.5 cfm/person.",
               "FullServiceRestaurant Kitchen set occupancy schedule to RestaurantSitDown BLDG_OCC_SCH.",
               "FullServiceRestaurant Kitchen set occupant activity schedule to RestaurantSitDown ACTIVITY_SCH.",
               "FullServiceRestaurant Kitchen set lighting schedule to RestaurantSitDown BLDG_LIGHT_KITCHEN_SCH_2010_2013.",
               "FullServiceRestaurant Kitchen set electric equipment schedule to RestaurantSitDown BLDG_EQUIP_SCH.",
               "FullServiceRestaurant Kitchen set gas equipment schedule to RestaurantSitDown Rest_GAS_EQUIP_SCH.",
               "FullServiceRestaurant Kitchen set infiltration schedule to RestaurantSitDown INFIL_HALF_ON_SCH.",
               "Office WholeBuilding - Lg Office had no people, one has been created.",
               "Office WholeBuilding - Lg Office set occupancy to 5.0 people/1000 ft^2.",
               "Office WholeBuilding - Lg Office had no lights, one has been created.",
               "Office WholeBuilding - Lg Office set LPD to 0.82 W/ft^2.",
               "Office WholeBuilding - Lg Office had no electric equipment, one has been created.",
               "Office WholeBuilding - Lg Office set electric EPD to 0.74973447 W/ft^2.",
               "Office WholeBuilding - Lg Office had no ventilation specification, one has been created.",
               "Office WholeBuilding - Lg Office set ventilation per area to 0.085 cfm/ft^2.",
               "Office WholeBuilding - Lg Office set occupancy schedule to OfficeLarge BLDG_OCC_SCH.",
               "Office WholeBuilding - Lg Office set occupant activity schedule to OfficeLarge ACTIVITY_SCH.",
               "Office WholeBuilding - Lg Office set lighting schedule to OfficeLarge BLDG_LIGHT_SCH_2013.",
               "Office WholeBuilding - Lg Office set electric equipment schedule to OfficeLarge BLDG_EQUIP_SCH.",
               "Office WholeBuilding - Lg Office set infiltration schedule to OfficeLarge INFIL_SCH_PNNL.",
               "Office OfficeLarge Main Data Center had no lights, one has been created.",
               "Office OfficeLarge Main Data Center set LPD to 0.82 W/ft^2.",
               "Office OfficeLarge Main Data Center had no electric equipment, one has been created.",
               "Office OfficeLarge Main Data Center set electric EPD to 45.0 W/ft^2.",
               "Office OfficeLarge Main Data Center had no ventilation specification, one has been created.",
               "Office OfficeLarge Main Data Center set lighting schedule to OfficeLarge BLDG_LIGHT_SCH_2013.",
               "Cannot remove Object of type 'OS:Schedule:Day' and named 'DataCenter_EQUIP_SCH Summer Design Day', because that would invalidate Object of type 'OS:Schedule:Ruleset' and named 'DataCenter_EQUIP_SCH'.",
               "Cannot remove Object of type 'OS:Schedule:Day' and named 'DataCenter_EQUIP_SCH Summer Design Day 1', because that would invalidate Object of type 'OS:Schedule:Ruleset' and named 'DataCenter_EQUIP_SCH'.",
               "Cannot remove Object of type 'OS:Schedule:Day' and named 'DataCenter_EQUIP_SCH Summer Design Day 2', because that would invalidate Object of type 'OS:Schedule:Ruleset' and named 'DataCenter_EQUIP_SCH'.",
               "Cannot remove Object of type 'OS:Schedule:Day' and named 'DataCenter_EQUIP_SCH Summer Design Day 3', because that would invalidate Object of type 'OS:Schedule:Ruleset' and named 'DataCenter_EQUIP_SCH'.",
               "Cannot remove Object of type 'OS:Schedule:Day' and named 'DataCenter_EQUIP_SCH Summer Design Day 4', because that would invalidate Object of type 'OS:Schedule:Ruleset' and named 'DataCenter_EQUIP_SCH'.",
               "Cannot remove Object of type 'OS:Schedule:Day' and named 'DataCenter_EQUIP_SCH Summer Design Day 5', because that would invalidate Object of type 'OS:Schedule:Ruleset' and named 'DataCenter_EQUIP_SCH'.",
               "Cannot remove Object of type 'OS:Schedule:Day' and named 'DataCenter_EQUIP_SCH Summer Design Day 6', because that would invalidate Object of type 'OS:Schedule:Ruleset' and named 'DataCenter_EQUIP_SCH'.",
               "Cannot remove Object of type 'OS:Schedule:Day' and named 'DataCenter_EQUIP_SCH Summer Design Day 7', because that would invalidate Object of type 'OS:Schedule:Ruleset' and named 'DataCenter_EQUIP_SCH'.",
               "Cannot remove Object of type 'OS:Schedule:Day' and named 'DataCenter_EQUIP_SCH Summer Design Day 8', because that would invalidate Object of type 'OS:Schedule:Ruleset' and named 'DataCenter_EQUIP_SCH'.",
               "Cannot remove Object of type 'OS:Schedule:Day' and named 'DataCenter_EQUIP_SCH Summer Design Day 9', because that would invalidate Object of type 'OS:Schedule:Ruleset' and named 'DataCenter_EQUIP_SCH'.",
               "Cannot remove Object of type 'OS:Schedule:Day' and named 'DataCenter_EQUIP_SCH Summer Design Day 10', because that would invalidate Object of type 'OS:Schedule:Ruleset' and named 'DataCenter_EQUIP_SCH'.",
               "Cannot remove Object of type 'OS:Schedule:Day' and named 'DataCenter_EQUIP_SCH Winter Design Day', because that would invalidate Object of type 'OS:Schedule:Ruleset' and named 'DataCenter_EQUIP_SCH'.",
               "Cannot remove Object of type 'OS:Schedule:Day' and named 'DataCenter_EQUIP_SCH Winter Design Day 1', because that would invalidate Object of type 'OS:Schedule:Ruleset' and named 'DataCenter_EQUIP_SCH'.",
               "Cannot remove Object of type 'OS:Schedule:Day' and named 'DataCenter_EQUIP_SCH Winter Design Day 2', because that would invalidate Object of type 'OS:Schedule:Ruleset' and named 'DataCenter_EQUIP_SCH'.",
               "Cannot remove Object of type 'OS:Schedule:Day' and named 'DataCenter_EQUIP_SCH Winter Design Day 3', because that would invalidate Object of type 'OS:Schedule:Ruleset' and named 'DataCenter_EQUIP_SCH'.",
               "Cannot remove Object of type 'OS:Schedule:Day' and named 'DataCenter_EQUIP_SCH Winter Design Day 4', because that would invalidate Object of type 'OS:Schedule:Ruleset' and named 'DataCenter_EQUIP_SCH'.",
               "Cannot remove Object of type 'OS:Schedule:Day' and named 'DataCenter_EQUIP_SCH Winter Design Day 5', because that would invalidate Object of type 'OS:Schedule:Ruleset' and named 'DataCenter_EQUIP_SCH'.",
               "Cannot remove Object of type 'OS:Schedule:Day' and named 'DataCenter_EQUIP_SCH Winter Design Day 6', because that would invalidate Object of type 'OS:Schedule:Ruleset' and named 'DataCenter_EQUIP_SCH'.",
               "Cannot remove Object of type 'OS:Schedule:Day' and named 'DataCenter_EQUIP_SCH Winter Design Day 7', because that would invalidate Object of type 'OS:Schedule:Ruleset' and named 'DataCenter_EQUIP_SCH'.",
               "Cannot remove Object of type 'OS:Schedule:Day' and named 'DataCenter_EQUIP_SCH Winter Design Day 8', because that would invalidate Object of type 'OS:Schedule:Ruleset' and named 'DataCenter_EQUIP_SCH'.",
               "Cannot remove Object of type 'OS:Schedule:Day' and named 'DataCenter_EQUIP_SCH Winter Design Day 9', because that would invalidate Object of type 'OS:Schedule:Ruleset' and named 'DataCenter_EQUIP_SCH'.",
               "Cannot remove Object of type 'OS:Schedule:Day' and named 'DataCenter_EQUIP_SCH Winter Design Day 10', because that would invalidate Object of type 'OS:Schedule:Ruleset' and named 'DataCenter_EQUIP_SCH'.",
               "Office OfficeLarge Main Data Center set electric equipment schedule to DataCenter_EQUIP_SCH.",
               "Office OfficeLarge Data Center had no lights, one has been created.",
               "Office OfficeLarge Data Center set LPD to 0.82 W/ft^2.",
               "Office OfficeLarge Data Center had no electric equipment, one has been created.",
               "Office OfficeLarge Data Center set electric EPD to 20.0 W/ft^2.",
               "Office OfficeLarge Data Center had no ventilation specification, one has been created.",
               "Office OfficeLarge Data Center set lighting schedule to OfficeLarge BLDG_LIGHT_SCH_2013.",
               "Office OfficeLarge Data Center set electric equipment schedule to DataCenter_EQUIP_SCH.",
               "Adding construction set: 90.1-2013-ASHRAE 169-2013-6A-Office--is_residentialNo",
               "Adding construction Typical Insulated Exterior Mass Floor R-19.61.",
               "Adding construction Typical Insulated Exterior Mass Wall R-12.5.",
               "Adding construction Typical IEAD Roof R-31.25.",
               "Adding construction Typical Interior Floor.",
               "Adding construction Typical Interior Wall.",
               "Adding construction Typical Interior Ceiling.",
               "Adding construction Typical Insulated Carpeted 8in Slab Floor.",
               "Adding construction Typical Insulated Basement Mass Wall.",
               "Adding construction U 0.48 SHGC 0.40 Dbl Ref-D Clr 6mm/13mm.",
               "Adding construction Typical Insulated Metal Door R-2.0.",
               "Adding construction U 0.44 SHGC 0.26 Dbl Ref-B-H Clr 6mm/13mm Air.",
               "Adding construction Typical Overhead Door R-2.0.",
               "Adding construction Window_U_0.50_SHGC_0.40_Skylight_Frame_Width_0.430_in.",
               "Adding construction Typical Interior Window.",
               "Adding construction Typical Interior Door.",
               "Adding construction Typical Interior Partition.",
               "For FullServiceRestaurant Dining A  - Story Mid2, set infiltration rate to 0.112 cfm/ft2 exterior wall area (aka 1.0 cfm/ft2 @75Pa).",
               "For FullServiceRestaurant Dining A  - Story Top, set infiltration rate to 0.112 cfm/ft2 exterior wall area (aka 1.0 cfm/ft2 @75Pa).",
               "For FullServiceRestaurant Dining A end_a - Story Top, set infiltration rate to 0.112 cfm/ft2 exterior wall area (aka 1.0 cfm/ft2 @75Pa).",
               "For FullServiceRestaurant Dining A end_b - Story Mid2, set infiltration rate to 0.112 cfm/ft2 exterior wall area (aka 1.0 cfm/ft2 @75Pa).",
               "For FullServiceRestaurant Dining A end_b - Story Top, set infiltration rate to 0.112 cfm/ft2 exterior wall area (aka 1.0 cfm/ft2 @75Pa).",
               "For FullServiceRestaurant Dining B  - Story Mid2, no exterior wall area was found, no infiltration will be added.",
               "For FullServiceRestaurant Dining B  - Story Top, no exterior wall area was found, no infiltration will be added.",
               "For FullServiceRestaurant Dining B end_a - Story Top, set infiltration rate to 0.112 cfm/ft2 exterior wall area (aka 1.0 cfm/ft2 @75Pa).",
               "For FullServiceRestaurant Dining B end_b - Story Mid2, set infiltration rate to 0.112 cfm/ft2 exterior wall area (aka 1.0 cfm/ft2 @75Pa).",
               "For FullServiceRestaurant Dining B end_b - Story Top, set infiltration rate to 0.112 cfm/ft2 exterior wall area (aka 1.0 cfm/ft2 @75Pa).",
               "For FullServiceRestaurant Dining C  - Story Mid2, set infiltration rate to 0.112 cfm/ft2 exterior wall area (aka 1.0 cfm/ft2 @75Pa).",
               "For FullServiceRestaurant Dining C  - Story Top, set infiltration rate to 0.112 cfm/ft2 exterior wall area (aka 1.0 cfm/ft2 @75Pa).",
               "For FullServiceRestaurant Dining C end_a - Story Top, set infiltration rate to 0.112 cfm/ft2 exterior wall area (aka 1.0 cfm/ft2 @75Pa).",
               "For FullServiceRestaurant Dining C end_b - Story Mid2, set infiltration rate to 0.112 cfm/ft2 exterior wall area (aka 1.0 cfm/ft2 @75Pa).",
               "For FullServiceRestaurant Dining C end_b - Story Top, set infiltration rate to 0.112 cfm/ft2 exterior wall area (aka 1.0 cfm/ft2 @75Pa).",
               "For FullServiceRestaurant Kitchen A  - Story Mid2, set infiltration rate to 0.112 cfm/ft2 exterior wall area (aka 1.0 cfm/ft2 @75Pa).",
               "For FullServiceRestaurant Kitchen A end_a - Story Mid2, set infiltration rate to 0.112 cfm/ft2 exterior wall area (aka 1.0 cfm/ft2 @75Pa).",
               "For FullServiceRestaurant Kitchen B  - Story Mid2, no exterior wall area was found, no infiltration will be added.",
               "For FullServiceRestaurant Kitchen B end_a - Story Mid2, set infiltration rate to 0.112 cfm/ft2 exterior wall area (aka 1.0 cfm/ft2 @75Pa).",
               "For FullServiceRestaurant Kitchen C  - Story Mid2, set infiltration rate to 0.112 cfm/ft2 exterior wall area (aka 1.0 cfm/ft2 @75Pa).",
               "For FullServiceRestaurant Kitchen C end_a - Story Mid2, set infiltration rate to 0.112 cfm/ft2 exterior wall area (aka 1.0 cfm/ft2 @75Pa).",
               "For Office WholeBuilding - Lg Office A  - Story Ground, set infiltration rate to 0.112 cfm/ft2 exterior wall area (aka 1.0 cfm/ft2 @75Pa).",
               "For Office WholeBuilding - Lg Office A  - Story Mid, set infiltration rate to 0.112 cfm/ft2 exterior wall area (aka 1.0 cfm/ft2 @75Pa).",
               "For Office WholeBuilding - Lg Office A end_a - Story Ground, set infiltration rate to 0.112 cfm/ft2 exterior wall area (aka 1.0 cfm/ft2 @75Pa).",
               "For Office WholeBuilding - Lg Office A end_a - Story Mid, set infiltration rate to 0.112 cfm/ft2 exterior wall area (aka 1.0 cfm/ft2 @75Pa).",
               "For Office WholeBuilding - Lg Office A end_b - Story Mid, set infiltration rate to 0.112 cfm/ft2 exterior wall area (aka 1.0 cfm/ft2 @75Pa).",
               "For Office WholeBuilding - Lg Office B  - Story Ground, no exterior wall area was found, no infiltration will be added.",
               "For Office WholeBuilding - Lg Office B  - Story Mid, no exterior wall area was found, no infiltration will be added.",
               "For Office WholeBuilding - Lg Office B end_a - Story Ground, set infiltration rate to 0.112 cfm/ft2 exterior wall area (aka 1.0 cfm/ft2 @75Pa).",
               "For Office WholeBuilding - Lg Office B end_a - Story Mid, set infiltration rate to 0.112 cfm/ft2 exterior wall area (aka 1.0 cfm/ft2 @75Pa).",
               "For Office WholeBuilding - Lg Office B end_b - Story Mid, set infiltration rate to 0.112 cfm/ft2 exterior wall area (aka 1.0 cfm/ft2 @75Pa).",
               "For Office WholeBuilding - Lg Office C  - Story Ground, set infiltration rate to 0.112 cfm/ft2 exterior wall area (aka 1.0 cfm/ft2 @75Pa).",
               "For Office WholeBuilding - Lg Office C  - Story Mid, set infiltration rate to 0.112 cfm/ft2 exterior wall area (aka 1.0 cfm/ft2 @75Pa).",
               "For Office WholeBuilding - Lg Office C end_a - Story Ground, set infiltration rate to 0.112 cfm/ft2 exterior wall area (aka 1.0 cfm/ft2 @75Pa).",
               "For Office WholeBuilding - Lg Office C end_a - Story Mid, set infiltration rate to 0.112 cfm/ft2 exterior wall area (aka 1.0 cfm/ft2 @75Pa).",
               "For Office WholeBuilding - Lg Office C end_b - Story Mid, set infiltration rate to 0.112 cfm/ft2 exterior wall area (aka 1.0 cfm/ft2 @75Pa).",
               "The building has fewer than 6 effective stories; assuming Hydraulic elevators.",
               "For FullServiceRestaurant Dining - 90.1-2013, floor area = 273494 ft^2.",
               "For FullServiceRestaurant Dining - 90.1-2013, number of spaces = 15.",
               "For FullServiceRestaurant Dining - 90.1-2013, number of people = 19145.",
               "For FullServiceRestaurant Kitchen - 90.1-2013, floor area = 102598 ft^2.",
               "For FullServiceRestaurant Kitchen - 90.1-2013, number of spaces = 6.",
               "For FullServiceRestaurant Kitchen - 90.1-2013, number of people = 513.",
               "For Office OfficeLarge Data Center - 90.1-2013, floor area = 3535 ft^2.",
               "For Office OfficeLarge Data Center - 90.1-2013, number of spaces = 3.",
               "For Office OfficeLarge Main Data Center - 90.1-2013, floor area = 6356 ft^2.",
               "For Office OfficeLarge Main Data Center - 90.1-2013, number of spaces = 3.",
               "For Office WholeBuilding - Lg Office - 90.1-2013, floor area = 366201 ft^2.",
               "For Office WholeBuilding - Lg Office - 90.1-2013, number of spaces = 15.",
               "For Office WholeBuilding - Lg Office - 90.1-2013, number of people = 1831.",
               "For FullServiceRestaurant Dining - 90.1-2013, adding 18.2 passenger elevators at 1 per 15000.0 ft^2.",
               "Unexpected key, can't calculate number of freight elevators from template.",
               "For FullServiceRestaurant Kitchen - 90.1-2013, adding 6.8 passenger elevators at 1 per 15000.0 ft^2.",
               "Unexpected key, can't calculate number of freight elevators from template.",
               "For Office OfficeLarge Data Center - 90.1-2013, adding 0.1 passenger elevators at 1 per 45000.0 ft^2.",
               "For Office OfficeLarge Data Center - 90.1-2013, adding 0.0 freight/service elevators at 1 per 500000.0 ft^2.",
               "For Office OfficeLarge Main Data Center - 90.1-2013, adding 0.1 passenger elevators at 1 per 45000.0 ft^2.",
               "For Office OfficeLarge Main Data Center - 90.1-2013, adding 0.0 freight/service elevators at 1 per 500000.0 ft^2.",
               "For Office WholeBuilding - Lg Office - 90.1-2013, adding 8.1 passenger elevators at 1 per 45000.0 ft^2.",
               "For Office WholeBuilding - Lg Office - 90.1-2013, adding 0.7 freight/service elevators at 1 per 500000.0 ft^2.",
               "No additional passenger elevators added to model.",
               "No additional passenger elevators added to model.",
               "Adding 35.0 Hydraulic elevators to the model in Office WholeBuilding - Lg Office B  - Story Ground.",
               "For FullServiceRestaurant Dining - 90.1-2013, floor area = 273494 ft^2.",
               "For FullServiceRestaurant Dining - 90.1-2013, number of spaces = 15.",
               "For FullServiceRestaurant Dining - 90.1-2013, number of people = 19145.",
               "For FullServiceRestaurant Kitchen - 90.1-2013, floor area = 102598 ft^2.",
               "For FullServiceRestaurant Kitchen - 90.1-2013, number of spaces = 6.",
               "For FullServiceRestaurant Kitchen - 90.1-2013, number of people = 513.",
               "For Office OfficeLarge Data Center - 90.1-2013, floor area = 3535 ft^2.",
               "For Office OfficeLarge Data Center - 90.1-2013, number of spaces = 3.",
               "For Office OfficeLarge Main Data Center - 90.1-2013, floor area = 6356 ft^2.",
               "For Office OfficeLarge Main Data Center - 90.1-2013, number of spaces = 3.",
               "For Office WholeBuilding - Lg Office - 90.1-2013, floor area = 366201 ft^2.",
               "For Office WholeBuilding - Lg Office - 90.1-2013, number of spaces = 15.",
               "For Office WholeBuilding - Lg Office - 90.1-2013, number of people = 1831.",
               "Facade and Landscape exterior lights shut off from {:hr=>24, :min=>0} to {:hr=>6, :min=>0}",
               "Non Facade and Landscape lights reduce by 30.0 % from {:hr=>24, :min=>0} to {:hr=>6, :min=>0}",
               "Added 0.1 W/ft^2 of lighting for 1768845.6000000006 ft^2 of parking area.",
               "Added 0.15 W/ft^2 of lighting for 17703.389505967505 ft^2 of building facade area.",
               "Added 30.0 W/ft of lighting for 75.21840000000006 ft of main entry length.",
               "Added 20.0 W/ft of lighting for 225.6552000000001 ft of other doors.",
               "For Prototype: Zone FullServiceRestaurant Kitchen A  - Story Mid2 Exhaust Fan: Pressure Rise = 0.5in w.c.",
               "For Zone FullServiceRestaurant Kitchen A  - Story Mid2 Exhaust Fan: allowed_hp = 0.45HP; motor eff = 70.0%; total fan eff = 39% based on 2885 cfm.",
               "For Prototype: Zone FullServiceRestaurant Kitchen A end_a - Story Mid2 Exhaust Fan: Pressure Rise = 0.5in w.c.",
               "For Zone FullServiceRestaurant Kitchen A end_a - Story Mid2 Exhaust Fan: allowed_hp = 0.02HP; motor eff = 70.0%; total fan eff = 39% based on 157 cfm.",
               "For Prototype: Zone FullServiceRestaurant Kitchen B  - Story Mid2 Exhaust Fan: Pressure Rise = 0.5in w.c.",
               "For Zone FullServiceRestaurant Kitchen B  - Story Mid2 Exhaust Fan: allowed_hp = 9.81HP; motor eff = 70.0%; total fan eff = 39% based on 62331 cfm.",
               "For Prototype: Zone FullServiceRestaurant Kitchen B end_a - Story Mid2 Exhaust Fan: Pressure Rise = 0.5in w.c.",
               "For Zone FullServiceRestaurant Kitchen B end_a - Story Mid2 Exhaust Fan: allowed_hp = 0.54HP; motor eff = 70.0%; total fan eff = 39% based on 3403 cfm.",
               "For Prototype: Zone FullServiceRestaurant Kitchen C  - Story Mid2 Exhaust Fan: Pressure Rise = 0.5in w.c.",
               "For Zone FullServiceRestaurant Kitchen C  - Story Mid2 Exhaust Fan: allowed_hp = 0.45HP; motor eff = 70.0%; total fan eff = 39% based on 2885 cfm.",
               "For Prototype: Zone FullServiceRestaurant Kitchen C end_a - Story Mid2 Exhaust Fan: Pressure Rise = 0.5in w.c.",
               "For Zone FullServiceRestaurant Kitchen C end_a - Story Mid2 Exhaust Fan: allowed_hp = 0.02HP; motor eff = 70.0%; total fan eff = 39% based on 157 cfm.",
               "For FullServiceRestaurant Dining - 90.1-2013, floor area = 273494 ft^2.",
               "For FullServiceRestaurant Dining - 90.1-2013, number of spaces = 15.",
               "For FullServiceRestaurant Dining - 90.1-2013, number of people = 19145.",
               "For FullServiceRestaurant Kitchen - 90.1-2013, floor area = 102598 ft^2.",
               "For FullServiceRestaurant Kitchen - 90.1-2013, number of spaces = 6.",
               "For FullServiceRestaurant Kitchen - 90.1-2013, number of people = 513.",
               "For Office OfficeLarge Data Center - 90.1-2013, floor area = 3535 ft^2.",
               "For Office OfficeLarge Data Center - 90.1-2013, number of spaces = 3.",
               "For Office OfficeLarge Main Data Center - 90.1-2013, floor area = 6356 ft^2.",
               "For Office OfficeLarge Main Data Center - 90.1-2013, number of spaces = 3.",
               "For Office WholeBuilding - Lg Office - 90.1-2013, floor area = 366201 ft^2.",
               "For Office WholeBuilding - Lg Office - 90.1-2013, number of spaces = 15.",
               "For Office WholeBuilding - Lg Office - 90.1-2013, number of people = 1831.",
               "Added Booster FullServiceRestaurant Kitchen - 90.1-2013 Service Water Use 90.91gpm at 180F.",
               "Added FullServiceRestaurant Kitchen - 90.1-2013 Service Water Use 60.61gpm at 140F.",
               "Capacity of 5727300 Btu/hr = 1.0 peak fraction * 5455 gal/hr * 8.4 lb/gal * 1.0 Btu/lb F * (140 - 40 deltaF / 0.8 htg eff).",
               "Added water heater called 5727gal NaturalGas Water Heater - 5727kBtu/hr",
               "Pipe length 20ft. For non-circulating systems, assume water heater is close to point of use.",
               "Added 20ft of Uninsulated copper pipe 0.75in type L losing heat to 70F air to FullServiceRestaurant Kitchen - 90.1-2013 Service Water Loop.",
               "Added non-circulating SWH loop called FullServiceRestaurant Kitchen - 90.1-2013 Service Water Loop",
               "Capacity of 1099642 Btu/hr = 1.0 peak fraction * 3273 gal/hr * 8.4 lb/gal * 1.0 Btu/lb F * (180 - 140 deltaF / 1.0 htg eff).",
               "Adding booster water heater to FullServiceRestaurant Kitchen - 90.1-2013 Service Water Loop",
               "Added Office WholeBuilding - Lg Office - 90.1-2013 Service Water Use 3.15gpm at 140F.",
               "Capacity of 113207 Btu/hr = 1.0 peak fraction * 108 gal/hr * 8.4 lb/gal * 1.0 Btu/lb F * (140 - 40 deltaF / 0.8 htg eff).",
               "Capacity of 113207 Btu/hr = 1.0 peak fraction * 108 gal/hr * 8.4 lb/gal * 1.0 Btu/lb F * (140 - 40 deltaF / 0.8 htg eff).",
               "Added water heater called 113gal Electricity Water Heater - 113kBtu/hr",
               "Pipe length 887ft = 2.0 * ( (376092ft2 / 2.0000000000000013 stories)^0.5 + (10.0ft * (2.0000000000000013 stories - 1.0) ) )",
               "Added 887ft of Uninsulated copper pipe 0.75in type L 1 losing heat to 70F air to Office Shared Service Water Loop.",
               "Added circulating SWH loop called Office Shared Service Water Loop",
               "Adding shared water heating loop for Office.",
               "Started adding daylighting controls.",
               "For FullServiceRestaurant Dining A  - Story Mid2: illuminance setpoint = 300.0 Lux",
               "For FullServiceRestaurant Dining A  - Story Mid2: sensor 1 controls 27% of the zone lighting.",
               "For FullServiceRestaurant Dining A  - Story Mid2: sensor 2 controls 27% of the zone lighting.",
               "For FullServiceRestaurant Dining A  - Story Top: illuminance setpoint = 300.0 Lux",
               "For FullServiceRestaurant Dining A  - Story Top: sensor 1 controls 27% of the zone lighting.",
               "For FullServiceRestaurant Dining A  - Story Top: sensor 2 controls 27% of the zone lighting.",
               "For FullServiceRestaurant Dining A end_a - Story Top, primary sidelighting control not required because less than 150W of lighting are present in the primary daylighted area per 9.4.1.1(e).",
               "For FullServiceRestaurant Dining A end_a - Story Top, secondary sidelighting control not required because less than 300W of lighting are present in the combined primary and secondary daylighted areas per 9.4.1.1(e).",
               "For FullServiceRestaurant Dining A end_b - Story Mid2, primary sidelighting control not required because less than 150W of lighting are present in the primary daylighted area per 9.4.1.1(e).",
               "For FullServiceRestaurant Dining A end_b - Story Mid2, secondary sidelighting control not required because less than 300W of lighting are present in the combined primary and secondary daylighted areas per 9.4.1.1(e).",
               "For FullServiceRestaurant Dining A end_b - Story Top, primary sidelighting control not required because less than 150W of lighting are present in the primary daylighted area per 9.4.1.1(e).",
               "For FullServiceRestaurant Dining A end_b - Story Top, secondary sidelighting control not required because less than 300W of lighting are present in the combined primary and secondary daylighted areas per 9.4.1.1(e).",
               "For FullServiceRestaurant Dining B  - Story Mid2, daylighting control not applicable because no exterior fenestration is present.",
               "For FullServiceRestaurant Dining B  - Story Top, daylighting control not applicable because no exterior fenestration is present.",
               "For FullServiceRestaurant Dining B end_a - Story Top: illuminance setpoint = 300.0 Lux",
               "For FullServiceRestaurant Dining B end_a - Story Top: sensor 1 controls 27% of the zone lighting.",
[...]
            "clothingSchedule" : "Clothing Schedule",
            "comfortWarnings" : true,
            "workEfficiencySchedule" : "Work Efficiency Schedule"
         },
         "measure_dir_name" : "PredictedMeanVote",
         "result" : {
            "completed_at" : "20200413T210432Z",
            "measure_class_name" : "PredictedMeanVote",
            "measure_display_name" : "Predicted Mean Vote",
            "measure_name" : "predicted_mean_vote",
            "measure_taxonomy" : "Reporting.QAQC",
            "measure_type" : "ModelMeasure",
            "measure_uid" : "11cd3144-dac6-4f64-90e4-b8804c6bfc5e",
            "measure_version_id" : "3351a0f8-9ffc-4dbd-a36b-873d8f45851b",
            "measure_version_modified" : "20200228T204851Z",
            "measure_xml_checksum" : "0CA4D54C",
            "started_at" : "20200413T210432Z",
            "stderr" : "",
            "stdout" : "",
            "step_errors" : [],
            "step_files" : [],
            "step_final_condition" : "3 people definitions and 5 people instances were altered.",
            "step_info" : [
               "Editing 'FullServiceRestaurant Dining People Definition'",
               "Editing 'FullServiceRestaurant Kitchen People Definition'",
               "Editing 'Office WholeBuilding - Lg Office People Definition'",
               "Assigning Schedules for 'Office WholeBuilding - Lg Office People 1'",
               "Assigning Schedules for 'FullServiceRestaurant Dining People 2'",
               "Assigning Schedules for 'Office WholeBuilding - Lg Office People 2'",
               "Assigning Schedules for 'FullServiceRestaurant Dining People 1'",
               "Assigning Schedules for 'FullServiceRestaurant Kitchen People 1'",
               "Adding zone output variables for Fanger PMV, Fanger PPD, and ASHRAE 55"
            ],
            "step_initial_condition" : "The building started with 3 people definitions.",
            "step_result" : "Success",
            "step_values" : [
               {
                  "name" : "comfortWarnings",
                  "value" : true
               },
               {
                  "name" : "meanRadiantCalcType",
                  "value" : "ZoneAveraged"
               },
               {
                  "name" : "workEfficiencySchedule",
                  "value" : "{a1dc2d7c-6924-4d18-9a13-ce7e3c0500f0}"
               },
               {
                  "name" : "clothingSchedule",
                  "value" : "{f7e63102-d903-46ed-991c-395f47a8ac4b}"
               },
               {
                  "name" : "airVelocitySchedule",
                  "value" : "{250d10b4-ee16-4985-8858-ac032ab9ad28}"
               },
               {
                  "name" : "reporting_frequency",
                  "value" : "Timestep"
               }
            ],
            "step_warnings" : []
         }
      },
      {
         "arguments" : {
            "__SKIP__" : true,
            "r_value" : 10
         },
         "measure_dir_name" : "IncreaseInsulationRValueForExteriorWalls",
         "result" : {
            "completed_at" : "20200413T210432Z",
            "measure_class_name" : "IncreaseInsulationRValueForExteriorWalls",
            "measure_display_name" : "Increase R-value of Insulation for Exterior Walls to a Specific Value",
            "measure_name" : "increase_insulation_r_value_for_exterior_walls",
            "measure_taxonomy" : "Envelope.Opaque",
            "measure_type" : "ModelMeasure",
            "measure_uid" : "3fdf9c39-d305-449b-a4b5-077166af5a67",
            "measure_version_id" : "b55a41da-39d3-45b1-a9d0-605b292667fe",
            "measure_version_modified" : "20200229T024316Z",
            "measure_xml_checksum" : "0F858D9E",
            "started_at" : "20200413T210432Z",
            "stderr" : "",
            "stdout" : "",
            "step_errors" : [],
            "step_files" : [],
            "step_info" : [],
            "step_result" : "Skip",
            "step_values" : [],
            "step_warnings" : []
         }
      },
      {
         "arguments" : {
            "__SKIP__" : true,
            "elecequip_power_reduction_percent" : 20
         },
         "measure_dir_name" : "ReduceElectricEquipmentLoadsByPercentage",
         "result" : {
            "completed_at" : "20200413T210432Z",
            "measure_class_name" : "ReduceElectricEquipmentLoadsByPercentage",
            "measure_display_name" : "Reduce Electric Equipment Loads by Percentage",
            "measure_name" : "reduce_electric_equipment_loads_by_percentage",
            "measure_taxonomy" : "Equipment.Electric Equipment",
            "measure_type" : "ModelMeasure",
            "measure_uid" : "0902e302-70db-4339-99b0-17f08bc93629",
            "measure_version_id" : "3edc28aa-ab1d-4495-affa-d8e5873431b1",
            "measure_version_modified" : "20200229T024319Z",
            "measure_xml_checksum" : "F9A5B8F0",
            "started_at" : "20200413T210432Z",
            "stderr" : "",
            "stdout" : "",
            "step_errors" : [],
            "step_files" : [],
            "step_info" : [],
            "step_result" : "Skip",
            "step_values" : [],
            "step_warnings" : []
         }
      },
      {
         "arguments" : {
            "__SKIP__" : true,
            "lighting_power_reduction_percent" : 30
         },
         "measure_dir_name" : "ReduceLightingLoadsByPercentage",
         "result" : {
            "completed_at" : "20200413T210432Z",
            "measure_class_name" : "ReduceLightingLoadsByPercentage",
            "measure_display_name" : "Reduce Lighting Loads by Percentage",
            "measure_name" : "reduce_lighting_loads_by_percentage",
            "measure_taxonomy" : "Electric Lighting.Lighting Equipment",
            "measure_type" : "ModelMeasure",
            "measure_uid" : "791f3404-a28b-4a80-ba3f-e15b339e39ea",
            "measure_version_id" : "01e31b73-acc4-47cd-b6cb-8c54238964fc",
            "measure_version_modified" : "20200229T024320Z",
            "measure_xml_checksum" : "293730A7",
            "started_at" : "20200413T210432Z",
            "stderr" : "",
            "stdout" : "",
            "step_errors" : [],
            "step_files" : [],
            "step_info" : [],
            "step_result" : "Skip",
            "step_values" : [],
            "step_warnings" : []
         }
      },
      {
         "arguments" : {
            "feature_id" : "1",
            "feature_name" : "Mixed_use 1",
            "feature_type" : "Building"
         },
         "measure_dir_name" : "default_feature_reports",
         "result" : {
            "completed_at" : "20200413T212225Z",
            "measure_class_name" : "DefaultFeatureReports",
            "measure_display_name" : "DefaultFeatureReports",
            "measure_name" : "default_feature_reports",
            "measure_taxonomy" : "Reporting.QAQC",
            "measure_type" : "ReportingMeasure",
            "measure_uid" : "9ee3135a-8070-4408-bfa1-b75fecf9dd4f",
            "measure_version_id" : "dcf043ff-d992-4835-893d-8658a6365eb3",
            "measure_version_modified" : "20200329T155122Z",
            "measure_xml_checksum" : "FB304155",
            "started_at" : "20200413T211139Z",
            "stderr" : "",
            "stdout" : "",
            "step_errors" : [],
            "step_files" : [
               "/Users/nmoore/github/urbanopt-cli/spec/test_directory/run/two_building_scenario/1/011_default_feature_reports/default_feature_reports.json",
               "/Users/nmoore/github/urbanopt-cli/spec/test_directory/run/two_building_scenario/1/011_default_feature_reports/default_feature_reports.csv"
            ],
            "step_final_condition" : "Default Feature Reports generated successfully.",
            "step_info" : [
               "All timeseries: [\"Electricity:Facility\", \"ElectricityProduced:Facility\", \"Gas:Facility\", \"Cooling:Electricity\", \"Heating:Electricity\", \"InteriorLights:Electricity\", \"ExteriorLights:Electricity\", \"InteriorEquipment:Electricity\", \"Fans:Electricity\", \"Pumps:Electricity\", \"WaterSystems:Electricity\", \"Heating:Gas\", \"WaterSystems:Gas\", \"InteriorEquipment:Gas\", \"DistrictCooling:Facility\", \"DistrictHeating:Facility\", \"District Cooling Chilled Water Rate\", \"District Cooling Mass Flow Rate\", \"District Cooling Inlet Temperature\", \"District Cooling Outlet Temperature\", \"District Heating Hot Water Rate\", \"District Heating Mass Flow Rate\", \"District Heating Inlet Temperature\", \"District Heating Outlet Temperature\", \"Zone Thermal Comfort Fanger Model PMV\", \"Zone Thermal Comfort Fanger Model PPD\", \"Net Electric Energy\", \"Electricity:Facility Power\", \"ElectricityProduced:Facility Power\", \"Electricity:Facility Apparent Power\", \"ElectricityProduced:Facility Apparent Power\", \"Net Power\", \"Net Apparent Power\"]",
               "TIMESERIES: Electricity:Facility",
               "KEY VALUES: [\"\"]",
               "!! TIMESERIES NAME: Electricity:Facility AND key_value: ",
               "First timeseries",
               "TIMESERIES: ElectricityProduced:Facility",
               "KEY VALUES: []",
               "!! TIMESERIES NAME: ElectricityProduced:Facility AND key_value: ",
               "Is NOT Initialized",
               "TIMESERIES: Gas:Facility",
               "KEY VALUES: [\"\"]",
               "!! TIMESERIES NAME: Gas:Facility AND key_value: ",
               "Is Initialized",
               "TIMESERIES: Cooling:Electricity",
               "KEY VALUES: [\"\"]",
               "!! TIMESERIES NAME: Cooling:Electricity AND key_value: ",
               "Is Initialized",
               "TIMESERIES: Heating:Electricity",
               "KEY VALUES: [\"\"]",
               "!! TIMESERIES NAME: Heating:Electricity AND key_value: ",
               "Is Initialized",
               "TIMESERIES: InteriorLights:Electricity",
               "KEY VALUES: [\"\"]",
               "!! TIMESERIES NAME: InteriorLights:Electricity AND key_value: ",
               "Is Initialized",
               "TIMESERIES: ExteriorLights:Electricity",
               "KEY VALUES: [\"\"]",
               "!! TIMESERIES NAME: ExteriorLights:Electricity AND key_value: ",
               "Is Initialized",
               "TIMESERIES: InteriorEquipment:Electricity",
               "KEY VALUES: [\"\"]",
               "!! TIMESERIES NAME: InteriorEquipment:Electricity AND key_value: ",
               "Is Initialized",
               "TIMESERIES: Fans:Electricity",
               "KEY VALUES: [\"\"]",
               "!! TIMESERIES NAME: Fans:Electricity AND key_value: ",
               "Is Initialized",
               "TIMESERIES: Pumps:Electricity",
               "KEY VALUES: [\"\"]",
               "!! TIMESERIES NAME: Pumps:Electricity AND key_value: ",
               "Is Initialized",
               "TIMESERIES: WaterSystems:Electricity",
               "KEY VALUES: [\"\"]",
               "!! TIMESERIES NAME: WaterSystems:Electricity AND key_value: ",
               "Is Initialized",
               "TIMESERIES: Heating:Gas",
               "KEY VALUES: [\"\"]",
               "!! TIMESERIES NAME: Heating:Gas AND key_value: ",
               "Is Initialized",
               "TIMESERIES: WaterSystems:Gas",
               "KEY VALUES: [\"\"]",
               "!! TIMESERIES NAME: WaterSystems:Gas AND key_value: ",
               "Is Initialized",
               "TIMESERIES: InteriorEquipment:Gas",
               "KEY VALUES: [\"\"]",
               "!! TIMESERIES NAME: InteriorEquipment:Gas AND key_value: ",
               "Is Initialized",
               "TIMESERIES: DistrictCooling:Facility",
               "KEY VALUES: []",
               "!! TIMESERIES NAME: DistrictCooling:Facility AND key_value: ",
               "Is NOT Initialized",
               "TIMESERIES: DistrictHeating:Facility",
               "KEY VALUES: []",
               "!! TIMESERIES NAME: DistrictHeating:Facility AND key_value: ",
               "Is NOT Initialized",
               "TIMESERIES: District Cooling Chilled Water Rate",
               "KEY VALUES: []",
               "!! TIMESERIES NAME: District Cooling Chilled Water Rate AND key_value: ",
               "Is NOT Initialized",
               "TIMESERIES: District Cooling Mass Flow Rate",
               "KEY VALUES: []",
               "!! TIMESERIES NAME: District Cooling Mass Flow Rate AND key_value: ",
               "Is NOT Initialized",
               "TIMESERIES: District Cooling Inlet Temperature",
               "KEY VALUES: []",
               "!! TIMESERIES NAME: District Cooling Inlet Temperature AND key_value: ",
               "Is NOT Initialized",
               "TIMESERIES: District Cooling Outlet Temperature",
               "KEY VALUES: []",
               "!! TIMESERIES NAME: District Cooling Outlet Temperature AND key_value: ",
               "Is NOT Initialized",
               "TIMESERIES: District Heating Hot Water Rate",
               "KEY VALUES: []",
               "!! TIMESERIES NAME: District Heating Hot Water Rate AND key_value: ",
               "Is NOT Initialized",
               "TIMESERIES: District Heating Mass Flow Rate",
               "KEY VALUES: []",
               "!! TIMESERIES NAME: District Heating Mass Flow Rate AND key_value: ",
               "Is NOT Initialized",
               "TIMESERIES: District Heating Inlet Temperature",
               "KEY VALUES: []",
               "!! TIMESERIES NAME: District Heating Inlet Temperature AND key_value: ",
               "Is NOT Initialized",
               "TIMESERIES: District Heating Outlet Temperature",
               "KEY VALUES: []",
               "!! TIMESERIES NAME: District Heating Outlet Temperature AND key_value: ",
               "Is NOT Initialized",
               "TIMESERIES: Zone Thermal Comfort Fanger Model PMV",
               "KEY VALUES: [\"BUILDING STORY 1 THERMALZONE FULLSERVICERESTAURANT DINING PEOPLE 2\", \"BUILDING STORY 2 THERMALZONE OFFICE WHOLEBUILDING - LG OFFICE PEOPLE 2\", \"BUILDING STORY 3 THERMALZONE FULLSERVICERESTAURANT DINING PEOPLE 1\", \"BUILDING STORY 3 THERMALZONE FULLSERVICERESTAURANT KITCHEN PEOPLE 1\", \"BUILDING STORY 4 THERMALZONE OFFICE WHOLEBUILDING - LG OFFICE PEOPLE 1\"]",
               "!! TIMESERIES NAME: Zone Thermal Comfort Fanger Model PMV AND key_value: BUILDING STORY 1 THERMALZONE FULLSERVICERESTAURANT DINING PEOPLE 2",
               "Is Initialized",
               "SETTING UP NEW ARRAY FOR: Zone Thermal Comfort Fanger Model PMV",
               "!! TIMESERIES NAME: Zone Thermal Comfort Fanger Model PMV AND key_value: BUILDING STORY 2 THERMALZONE OFFICE WHOLEBUILDING - LG OFFICE PEOPLE 2",
               "Is Initialized",
               "!! TIMESERIES NAME: Zone Thermal Comfort Fanger Model PMV AND key_value: BUILDING STORY 3 THERMALZONE FULLSERVICERESTAURANT DINING PEOPLE 1",
               "Is Initialized",
               "!! TIMESERIES NAME: Zone Thermal Comfort Fanger Model PMV AND key_value: BUILDING STORY 3 THERMALZONE FULLSERVICERESTAURANT KITCHEN PEOPLE 1",
               "Is Initialized",
               "!! TIMESERIES NAME: Zone Thermal Comfort Fanger Model PMV AND key_value: BUILDING STORY 4 THERMALZONE OFFICE WHOLEBUILDING - LG OFFICE PEOPLE 1",
               "Is Initialized",
               "timeseries Zone Thermal Comfort Fanger Model PMV: hours out of bounds: 2758.75",
               "TIMESERIES: Zone Thermal Comfort Fanger Model PPD",
               "KEY VALUES: [\"BUILDING STORY 1 THERMALZONE FULLSERVICERESTAURANT DINING PEOPLE 2\", \"BUILDING STORY 2 THERMALZONE OFFICE WHOLEBUILDING - LG OFFICE PEOPLE 2\", \"BUILDING STORY 3 THERMALZONE FULLSERVICERESTAURANT DINING PEOPLE 1\", \"BUILDING STORY 3 THERMALZONE FULLSERVICERESTAURANT KITCHEN PEOPLE 1\", \"BUILDING STORY 4 THERMALZONE OFFICE WHOLEBUILDING - LG OFFICE PEOPLE 1\"]",
               "!! TIMESERIES NAME: Zone Thermal Comfort Fanger Model PPD AND key_value: BUILDING STORY 1 THERMALZONE FULLSERVICERESTAURANT DINING PEOPLE 2",
               "Is Initialized",
               "SETTING UP NEW ARRAY FOR: Zone Thermal Comfort Fanger Model PPD",
               "!! TIMESERIES NAME: Zone Thermal Comfort Fanger Model PPD AND key_value: BUILDING STORY 2 THERMALZONE OFFICE WHOLEBUILDING - LG OFFICE PEOPLE 2",
               "Is Initialized",
               "!! TIMESERIES NAME: Zone Thermal Comfort Fanger Model PPD AND key_value: BUILDING STORY 3 THERMALZONE FULLSERVICERESTAURANT DINING PEOPLE 1",
               "Is Initialized",
               "!! TIMESERIES NAME: Zone Thermal Comfort Fanger Model PPD AND key_value: BUILDING STORY 3 THERMALZONE FULLSERVICERESTAURANT KITCHEN PEOPLE 1",
               "Is Initialized",
               "!! TIMESERIES NAME: Zone Thermal Comfort Fanger Model PPD AND key_value: BUILDING STORY 4 THERMALZONE OFFICE WHOLEBUILDING - LG OFFICE PEOPLE 1",
               "Is Initialized",
               "timeseries Zone Thermal Comfort Fanger Model PPD: hours out of bounds: 459.25",
               "TIMESERIES: Net Electric Energy",
               "KEY VALUES: []",
               "!! TIMESERIES NAME: Net Electric Energy AND key_value: ",
               "Is NOT Initialized",
               "TIMESERIES: Electricity:Facility Power",
               "KEY VALUES: []",
               "!! TIMESERIES NAME: Electricity:Facility Power AND key_value: ",
               "Is NOT Initialized",
               "timeseries_name: Electricity:Facility Power, key: Electricity:Facility",
               "TIMESERIES: ElectricityProduced:Facility Power",
               "KEY VALUES: []",
               "!! TIMESERIES NAME: ElectricityProduced:Facility Power AND key_value: ",
               "Is NOT Initialized",
               "timeseries_name: ElectricityProduced:Facility Power, key: ElectricityProduced:Facility",
               "TIMESERIES: Electricity:Facility Apparent Power",
               "KEY VALUES: []",
               "!! TIMESERIES NAME: Electricity:Facility Apparent Power AND key_value: ",
               "Is NOT Initialized",
               "timeseries_name: Electricity:Facility Apparent Power, key: Electricity:Facility",
               "TIMESERIES: ElectricityProduced:Facility Apparent Power",
               "KEY VALUES: []",
               "!! TIMESERIES NAME: ElectricityProduced:Facility Apparent Power AND key_value: ",
               "Is NOT Initialized",
               "timeseries_name: ElectricityProduced:Facility Apparent Power, key: ElectricityProduced:Facility",
               "TIMESERIES: Net Power",
               "KEY VALUES: []",
               "!! TIMESERIES NAME: Net Power AND key_value: ",
               "Is NOT Initialized",
               "Power calc",
               "TIMESERIES: Net Apparent Power",
               "KEY VALUES: []",
               "!! TIMESERIES NAME: Net Apparent Power AND key_value: ",
               "Is NOT Initialized",
               "new final_timeseries_names size: 42"
            ],
            "step_result" : "Success",
            "step_values" : [
               {
                  "name" : "feature_id",
                  "value" : "1"
               },
               {
                  "name" : "feature_name",
                  "value" : "Mixed_use 1"
               },
               {
                  "name" : "feature_type",
                  "value" : "Building"
               },
               {
                  "name" : "reporting_frequency",
                  "value" : "Timestep"
               }
            ],
            "step_warnings" : [
               "Query failed for Life-Cycle Cost Report and TableName='Present Value for Recurring, Nonrecurring and Energy Costs (Before Tax)' AND RowName='LCC_MAT - BUILDING - LIFE CYCLE COSTS' AND ColumnName='Cost'"
            ]
         }
      }
   ],
   "updated_at" : "20200413T212237Z",
   "weather_file" : null
}
